<?xml version="1.0" encoding="UTF-8"?>

<!-- generated on 2025-03-14 18:47:57.017642 by randomTrips.py v1_22_0+0449-9311ec3459f
<configuration>
    <net-file value="random_grid_4.net.xml"/>
    <output-trip-file value="random_grid_4_light.trips.xml"/>
    <fringe-factor value="100"/>
    <validate value="True"/>
    <period value="5.0"/>
    <random-depart value="True"/>
    <binomial value="10"/>
</configuration>
-->

<!-- generated on 2025-03-14 18:47:57 by Eclipse SUMO duarouter Version v1_22_0+0449-9311ec3459f
<duarouterConfiguration xmlns:xsi="http://www.w3.org/2001/XMLSchema-instance" xsi:noNamespaceSchemaLocation="http://sumo.dlr.de/xsd/duarouterConfiguration.xsd">

    <input>
        <net-file value="random_grid_4.net.xml"/>
        <route-files value="random_grid_4_light.trips.xml"/>
    </input>

    <output>
        <output-file value="random_grid_4_light.trips.xml.tmp"/>
        <alternatives-output value="NUL"/>
        <write-trips value="true"/>
    </output>

    <time>
        <begin value="0.0"/>
        <end value="3600.0"/>
    </time>

    <report>
        <no-warnings value="true"/>
        <ignore-errors value="true"/>
        <no-step-log value="true"/>
    </report>

</duarouterConfiguration>
-->

<routes xmlns:xsi="http://www.w3.org/2001/XMLSchema-instance" xsi:noNamespaceSchemaLocation="http://sumo.dlr.de/xsd/routes_file.xsd">
    <trip id="0" depart="1.00" from="307" to="468"/>
    <trip id="1" depart="9.00" from="-470" to="468"/>
    <trip id="2" depart="12.00" from="-468" to="-307"/>
    <trip id="3" depart="26.00" from="307" to="462"/>
    <trip id="4" depart="28.00" from="307" to="468"/>
    <trip id="5" depart="28.00" from="-462" to="470"/>
    <trip id="6" depart="35.00" from="307" to="468"/>
    <trip id="7" depart="38.00" from="-468" to="462"/>
    <trip id="8" depart="41.00" from="307" to="470"/>
    <trip id="9" depart="46.00" from="-468" to="470"/>
    <trip id="12" depart="61.00" from="-470" to="462"/>
    <trip id="14" depart="85.00" from="307" to="470"/>
    <trip id="15" depart="92.00" from="-470" to="462"/>
    <trip id="18" depart="109.00" from="307" to="468"/>
    <trip id="19" depart="113.00" from="-468" to="-307"/>
    <trip id="20" depart="113.00" from="-470" to="-307"/>
    <trip id="21" depart="114.00" from="307" to="470"/>
    <trip id="23" depart="136.00" from="-470" to="-307"/>
    <trip id="24" depart="138.00" from="307" to="462"/>
    <trip id="25" depart="168.00" from="-468" to="-307"/>
    <trip id="27" depart="178.00" from="-470" to="-307"/>
    <trip id="28" depart="181.00" from="-470" to="468"/>
    <trip id="30" depart="191.00" from="-462" to="-307"/>
    <trip id="31" depart="198.00" from="307" to="470"/>
    <trip id="32" depart="204.00" from="-470" to="462"/>
    <trip id="33" depart="205.00" from="-470" to="-307"/>
    <trip id="34" depart="205.00" from="307" to="468"/>
    <trip id="36" depart="214.00" from="-468" to="462"/>
    <trip id="38" depart="235.00" from="-462" to="470"/>
    <trip id="39" depart="243.00" from="307" to="468"/>
    <trip id="41" depart="248.00" from="-468" to="-307"/>
    <trip id="43" depart="250.00" from="-470" to="462"/>
    <trip id="45" depart="264.00" from="-462" to="468"/>
    <trip id="46" depart="265.00" from="-468" to="-307"/>
    <trip id="48" depart="272.00" from="307" to="470"/>
    <trip id="51" depart="310.00" from="307" to="468"/>
    <trip id="52" depart="310.00" from="-468" to="470"/>
    <trip id="53" depart="320.00" from="-468" to="470"/>
    <trip id="54" depart="322.00" from="-468" to="470"/>
    <trip id="55" depart="326.00" from="-470" to="462"/>
    <trip id="57" depart="340.00" from="-462" to="468"/>
    <trip id="59" depart="359.00" from="-470" to="462"/>
    <trip id="60" depart="361.00" from="-462" to="468"/>
    <trip id="61" depart="364.00" from="-470" to="468"/>
    <trip id="62" depart="367.00" from="-470" to="468"/>
    <trip id="63" depart="371.00" from="-462" to="-307"/>
    <trip id="64" depart="373.00" from="-470" to="-307"/>
    <trip id="65" depart="383.00" from="-470" to="468"/>
    <trip id="66" depart="390.00" from="-470" to="468"/>
    <trip id="67" depart="393.00" from="-462" to="-307"/>
    <trip id="68" depart="396.00" from="-462" to="470"/>
    <trip id="70" depart="406.00" from="-462" to="468"/>
    <trip id="71" depart="411.00" from="-462" to="470"/>
    <trip id="72" depart="420.00" from="307" to="470"/>
    <trip id="73" depart="420.00" from="307" to="470"/>
    <trip id="74" depart="421.00" from="-468" to="462"/>
    <trip id="75" depart="421.00" from="-468" to="462"/>
    <trip id="76" depart="423.00" from="-462" to="468"/>
    <trip id="77" depart="429.00" from="-462" to="470"/>
    <trip id="78" depart="434.00" from="-470" to="462"/>
    <trip id="79" depart="434.00" from="307" to="470"/>
    <trip id="80" depart="448.00" from="307" to="462"/>
    <trip id="81" depart="454.00" from="-470" to="-307"/>
    <trip id="82" depart="455.00" from="-470" to="468"/>
    <trip id="83" depart="456.00" from="-468" to="462"/>
    <trip id="84" depart="456.00" from="307" to="468"/>
    <trip id="85" depart="466.00" from="-468" to="462"/>
    <trip id="87" depart="483.00" from="-462" to="468"/>
    <trip id="89" depart="484.00" from="-470" to="462"/>
    <trip id="90" depart="492.00" from="307" to="468"/>
    <trip id="91" depart="494.00" from="-470" to="468"/>
    <trip id="92" depart="504.00" from="-462" to="-307"/>
    <trip id="93" depart="505.00" from="307" to="462"/>
    <trip id="94" depart="508.00" from="-470" to="462"/>
    <trip id="95" depart="516.00" from="-462" to="-307"/>
    <trip id="96" depart="520.00" from="307" to="462"/>
    <trip id="97" depart="523.00" from="-462" to="-307"/>
    <trip id="98" depart="530.00" from="307" to="470"/>
    <trip id="99" depart="540.00" from="-468" to="-307"/>
    <trip id="100" depart="542.00" from="-462" to="-307"/>
    <trip id="104" depart="575.00" from="-468" to="470"/>
    <trip id="105" depart="581.00" from="-470" to="462"/>
    <trip id="106" depart="588.00" from="-462" to="-307"/>
    <trip id="107" depart="603.00" from="-468" to="462"/>
    <trip id="111" depart="641.00" from="307" to="468"/>
    <trip id="112" depart="651.00" from="-462" to="-307"/>
    <trip id="113" depart="652.00" from="-462" to="-307"/>
    <trip id="114" depart="655.00" from="-470" to="468"/>
    <trip id="115" depart="661.00" from="307" to="462"/>
    <trip id="116" depart="668.00" from="307" to="470"/>
    <trip id="119" depart="693.00" from="-468" to="470"/>
    <trip id="120" depart="693.00" from="307" to="462"/>
    <trip id="121" depart="697.00" from="-470" to="468"/>
    <trip id="122" depart="697.00" from="-468" to="470"/>
    <trip id="123" depart="699.00" from="-468" to="470"/>
    <trip id="124" depart="699.00" from="-468" to="470"/>
    <trip id="125" depart="705.00" from="-462" to="-307"/>
    <trip id="126" depart="710.00" from="-468" to="470"/>
    <trip id="127" depart="713.00" from="-470" to="468"/>
    <trip id="128" depart="716.00" from="-462" to="-307"/>
    <trip id="129" depart="729.00" from="-468" to="470"/>
    <trip id="130" depart="733.00" from="307" to="470"/>
    <trip id="131" depart="739.00" from="-462" to="-307"/>
    <trip id="132" depart="744.00" from="-462" to="470"/>
    <trip id="134" depart="748.00" from="307" to="470"/>
    <trip id="136" depart="761.00" from="-468" to="470"/>
    <trip id="137" depart="763.00" from="-470" to="468"/>
    <trip id="138" depart="767.00" from="307" to="468"/>
    <trip id="139" depart="770.00" from="-462" to="468"/>
    <trip id="142" depart="777.00" from="-468" to="-307"/>
    <trip id="143" depart="785.00" from="-462" to="468"/>
    <trip id="144" depart="793.00" from="-470" to="468"/>
    <trip id="145" depart="798.00" from="-470" to="468"/>
    <trip id="146" depart="801.00" from="-468" to="470"/>
    <trip id="147" depart="807.00" from="-468" to="470"/>
    <trip id="148" depart="810.00" from="-470" to="-307"/>
    <trip id="152" depart="847.00" from="307" to="470"/>
    <trip id="155" depart="862.00" from="307" to="468"/>
    <trip id="156" depart="867.00" from="-468" to="462"/>
    <trip id="157" depart="876.00" from="307" to="462"/>
    <trip id="158" depart="882.00" from="307" to="468"/>
    <trip id="159" depart="884.00" from="-468" to="470"/>
    <trip id="161" depart="891.00" from="-468" to="-307"/>
    <trip id="163" depart="900.00" from="-462" to="468"/>
    <trip id="164" depart="908.00" from="-468" to="462"/>
    <trip id="166" depart="919.00" from="-462" to="470"/>
    <trip id="167" depart="928.00" from="-468" to="462"/>
    <trip id="170" depart="937.00" from="-468" to="462"/>
    <trip id="171" depart="943.00" from="307" to="470"/>
    <trip id="173" depart="946.00" from="-470" to="-307"/>
    <trip id="176" depart="979.00" from="307" to="470"/>
    <trip id="180" depart="1008.00" from="-462" to="468"/>
    <trip id="182" depart="1019.00" from="307" to="468"/>
    <trip id="183" depart="1021.00" from="-468" to="462"/>
    <trip id="185" depart="1030.00" from="-468" to="-307"/>
    <trip id="187" depart="1039.00" from="-468" to="-307"/>
    <trip id="188" depart="1043.00" from="307" to="470"/>
    <trip id="189" depart="1045.00" from="-468" to="462"/>
    <trip id="190" depart="1053.00" from="-468" to="462"/>
    <trip id="191" depart="1058.00" from="-462" to="470"/>
    <trip id="194" depart="1075.00" from="-468" to="-307"/>
    <trip id="195" depart="1075.00" from="-468" to="-307"/>
    <trip id="196" depart="1076.00" from="-468" to="462"/>
    <trip id="197" depart="1088.00" from="-462" to="468"/>
    <trip id="198" depart="1097.00" from="307" to="462"/>
    <trip id="199" depart="1104.00" from="307" to="468"/>
    <trip id="200" depart="1111.00" from="-470" to="-307"/>
    <trip id="201" depart="1119.00" from="-468" to="-307"/>
    <trip id="203" depart="1129.00" from="307" to="462"/>
    <trip id="205" depart="1145.00" from="-470" to="462"/>
    <trip id="208" depart="1168.00" from="-462" to="-307"/>
    <trip id="209" depart="1176.00" from="-470" to="468"/>
    <trip id="210" depart="1181.00" from="-468" to="-307"/>
    <trip id="212" depart="1192.00" from="-462" to="470"/>
    <trip id="215" depart="1220.00" from="307" to="462"/>
    <trip id="216" depart="1222.00" from="-468" to="470"/>
    <trip id="217" depart="1225.00" from="-462" to="470"/>
    <trip id="219" depart="1229.00" from="-462" to="-307"/>
    <trip id="220" depart="1232.00" from="-470" to="-307"/>
    <trip id="221" depart="1236.00" from="307" to="468"/>
    <trip id="222" depart="1239.00" from="-468" to="-307"/>
    <trip id="223" depart="1242.00" from="-470" to="-307"/>
    <trip id="224" depart="1246.00" from="-468" to="-307"/>
    <trip id="225" depart="1254.00" from="307" to="462"/>
    <trip id="226" depart="1255.00" from="-470" to="468"/>
    <trip id="227" depart="1261.00" from="-462" to="-307"/>
    <trip id="228" depart="1261.00" from="-468" to="-307"/>
    <trip id="229" depart="1266.00" from="307" to="468"/>
    <trip id="230" depart="1275.00" from="307" to="468"/>
    <trip id="231" depart="1281.00" from="-462" to="470"/>
    <trip id="232" depart="1284.00" from="307" to="470"/>
    <trip id="233" depart="1289.00" from="-462" to="470"/>
    <trip id="235" depart="1302.00" from="-462" to="470"/>
    <trip id="237" depart="1319.00" from="307" to="470"/>
    <trip id="238" depart="1321.00" from="-468" to="470"/>
    <trip id="241" depart="1332.00" from="-462" to="470"/>
    <trip id="242" depart="1341.00" from="-470" to="462"/>
    <trip id="243" depart="1341.00" from="-462" to="-307"/>
    <trip id="244" depart="1350.00" from="307" to="470"/>
    <trip id="245" depart="1352.00" from="-468" to="470"/>
    <trip id="246" depart="1362.00" from="-462" to="470"/>
    <trip id="247" depart="1367.00" from="-468" to="470"/>
    <trip id="248" depart="1377.00" from="-462" to="468"/>
    <trip id="249" depart="1377.00" from="-470" to="462"/>
    <trip id="250" depart="1381.00" from="-462" to="-307"/>
    <trip id="251" depart="1389.00" from="307" to="462"/>
    <trip id="252" depart="1389.00" from="-462" to="-307"/>
    <trip id="254" depart="1408.00" from="-462" to="468"/>
    <trip id="255" depart="1412.00" from="-468" to="-307"/>
    <trip id="256" depart="1415.00" from="-470" to="468"/>
    <trip id="257" depart="1416.00" from="-470" to="462"/>
    <trip id="258" depart="1429.00" from="-462" to="470"/>
    <trip id="259" depart="1431.00" from="-470" to="-307"/>
    <trip id="260" depart="1435.00" from="-462" to="-307"/>
    <trip id="261" depart="1441.00" from="307" to="468"/>
    <trip id="262" depart="1448.00" from="307" to="462"/>
    <trip id="263" depart="1448.00" from="-468" to="462"/>
    <trip id="264" depart="1453.00" from="-470" to="468"/>
    <trip id="265" depart="1456.00" from="-468" to="462"/>
    <trip id="266" depart="1470.00" from="-470" to="-307"/>
    <trip id="267" depart="1471.00" from="-468" to="470"/>
    <trip id="268" depart="1473.00" from="-462" to="470"/>
    <trip id="269" depart="1479.00" from="-470" to="468"/>
    <trip id="270" depart="1486.00" from="-468" to="462"/>
    <trip id="271" depart="1498.00" from="-468" to="-307"/>
    <trip id="273" depart="1502.00" from="-468" to="-307"/>
    <trip id="274" depart="1502.00" from="-462" to="-307"/>
    <trip id="275" depart="1520.00" from="-468" to="462"/>
    <trip id="277" depart="1527.00" from="-462" to="470"/>
    <trip id="278" depart="1539.00" from="-462" to="468"/>
    <trip id="279" depart="1542.00" from="-470" to="468"/>
    <trip id="280" depart="1543.00" from="-462" to="470"/>
    <trip id="282" depart="1553.00" from="-462" to="470"/>
    <trip id="283" depart="1560.00" from="-470" to="-307"/>
    <trip id="284" depart="1577.00" from="307" to="462"/>
    <trip id="286" depart="1584.00" from="307" to="462"/>
    <trip id="287" depart="1593.00" from="307" to="470"/>
    <trip id="289" depart="1602.00" from="-462" to="470"/>
    <trip id="290" depart="1602.00" from="-470" to="462"/>
    <trip id="292" depart="1606.00" from="307" to="462"/>
    <trip id="293" depart="1607.00" from="-470" to="462"/>
    <trip id="295" depart="1609.00" from="307" to="470"/>
    <trip id="296" depart="1613.00" from="307" to="468"/>
    <trip id="297" depart="1613.00" from="307" to="470"/>
    <trip id="298" depart="1619.00" from="-470" to="-307"/>
    <trip id="299" depart="1620.00" from="-462" to="468"/>
    <trip id="300" depart="1625.00" from="307" to="462"/>
    <trip id="301" depart="1635.00" from="-468" to="462"/>
    <trip id="302" depart="1637.00" from="-462" to="-307"/>
    <trip id="303" depart="1641.00" from="-468" to="470"/>
    <trip id="304" depart="1641.00" from="-470" to="468"/>
    <trip id="305" depart="1641.00" from="-468" to="470"/>
    <trip id="306" depart="1646.00" from="-468" to="462"/>
    <trip id="307" depart="1650.00" from="307" to="468"/>
    <trip id="308" depart="1654.00" from="-468" to="-307"/>
    <trip id="309" depart="1662.00" from="-462" to="468"/>
    <trip id="310" depart="1662.00" from="-462" to="-307"/>
    <trip id="311" depart="1672.00" from="-470" to="462"/>
    <trip id="312" depart="1686.00" from="-470" to="468"/>
    <trip id="313" depart="1697.00" from="-468" to="462"/>
    <trip id="314" depart="1706.00" from="-470" to="-307"/>
    <trip id="317" depart="1710.00" from="-470" to="468"/>
    <trip id="319" depart="1727.00" from="307" to="468"/>
    <trip id="322" depart="1744.00" from="-468" to="-307"/>
    <trip id="323" depart="1754.00" from="-470" to="-307"/>
    <trip id="324" depart="1755.00" from="-470" to="468"/>
    <trip id="327" depart="1771.00" from="-462" to="470"/>
    <trip id="328" depart="1772.00" from="-470" to="462"/>
    <trip id="329" depart="1778.00" from="307" to="462"/>
    <trip id="330" depart="1779.00" from="307" to="468"/>
    <trip id="331" depart="1783.00" from="-468" to="462"/>
    <trip id="332" depart="1790.00" from="307" to="468"/>
    <trip id="333" depart="1793.00" from="307" to="462"/>
    <trip id="335" depart="1800.00" from="307" to="470"/>
    <trip id="336" depart="1809.00" from="307" to="462"/>
    <trip id="338" depart="1825.00" from="-470" to="-307"/>
    <trip id="339" depart="1825.00" from="307" to="468"/>
    <trip id="340" depart="1832.00" from="307" to="462"/>
    <trip id="342" depart="1837.00" from="-462" to="468"/>
    <trip id="345" depart="1855.00" from="-468" to="-307"/>
    <trip id="346" depart="1856.00" from="-468" to="-307"/>
    <trip id="347" depart="1866.00" from="-462" to="-307"/>
    <trip id="349" depart="1867.00" from="-470" to="-307"/>
    <trip id="350" depart="1867.00" from="-470" to="468"/>
    <trip id="351" depart="1873.00" from="-468" to="462"/>
    <trip id="352" depart="1878.00" from="-468" to="-307"/>
    <trip id="355" depart="1893.00" from="-470" to="-307"/>
    <trip id="356" depart="1894.00" from="307" to="470"/>
    <trip id="357" depart="1896.00" from="307" to="462"/>
    <trip id="358" depart="1901.00" from="-462" to="-307"/>
    <trip id="360" depart="1904.00" from="307" to="468"/>
    <trip id="361" depart="1905.00" from="-470" to="468"/>
    <trip id="362" depart="1907.00" from="307" to="468"/>
    <trip id="364" depart="1910.00" from="307" to="468"/>
    <trip id="366" depart="1921.00" from="-470" to="462"/>
    <trip id="367" depart="1925.00" from="-462" to="468"/>
    <trip id="368" depart="1935.00" from="-462" to="468"/>
    <trip id="370" depart="1940.00" from="-470" to="-307"/>
    <trip id="372" depart="1945.00" from="-470" to="462"/>
    <trip id="373" depart="1959.00" from="-470" to="462"/>
    <trip id="374" depart="1964.00" from="-462" to="-307"/>
    <trip id="375" depart="1965.00" from="-462" to="470"/>
    <trip id="376" depart="1967.00" from="-470" to="-307"/>
    <trip id="377" depart="1968.00" from="307" to="468"/>
    <trip id="379" depart="1976.00" from="307" to="468"/>
    <trip id="380" depart="1981.00" from="-470" to="462"/>
    <trip id="381" depart="1989.00" from="-462" to="470"/>
    <trip id="382" depart="1993.00" from="-468" to="470"/>
    <trip id="385" depart="1997.00" from="307" to="470"/>
    <trip id="386" depart="2000.00" from="-462" to="468"/>
    <trip id="387" depart="2002.00" from="-462" to="-307"/>
    <trip id="388" depart="2002.00" from="-470" to="462"/>
    <trip id="389" depart="2003.00" from="-462" to="468"/>
    <trip id="390" depart="2004.00" from="-462" to="470"/>
    <trip id="391" depart="2006.00" from="307" to="462"/>
    <trip id="392" depart="2011.00" from="-468" to="-307"/>
    <trip id="393" depart="2023.00" from="-462" to="470"/>
    <trip id="394" depart="2024.00" from="-468" to="462"/>
    <trip id="395" depart="2027.00" from="-468" to="462"/>
    <trip id="397" depart="2032.00" from="-462" to="470"/>
    <trip id="398" depart="2032.00" from="-468" to="470"/>
    <trip id="399" depart="2032.00" from="307" to="468"/>
    <trip id="400" depart="2041.00" from="-468" to="462"/>
    <trip id="401" depart="2046.00" from="-462" to="468"/>
    <trip id="402" depart="2046.00" from="-470" to="-307"/>
    <trip id="403" depart="2051.00" from="-470" to="468"/>
    <trip id="404" depart="2053.00" from="307" to="462"/>
    <trip id="405" depart="2054.00" from="-462" to="470"/>
    <trip id="407" depart="2059.00" from="-470" to="-307"/>
    <trip id="408" depart="2060.00" from="-470" to="468"/>
    <trip id="409" depart="2065.00" from="-470" to="462"/>
    <trip id="410" depart="2067.00" from="307" to="470"/>
    <trip id="411" depart="2069.00" from="-470" to="-307"/>
    <trip id="412" depart="2078.00" from="-470" to="-307"/>
    <trip id="414" depart="2086.00" from="-462" to="468"/>
    <trip id="415" depart="2089.00" from="307" to="470"/>
    <trip id="416" depart="2091.00" from="307" to="468"/>
    <trip id="417" depart="2093.00" from="-468" to="-307"/>
    <trip id="418" depart="2094.00" from="-468" to="470"/>
    <trip id="420" depart="2098.00" from="-470" to="468"/>
    <trip id="421" depart="2133.00" from="307" to="468"/>
    <trip id="422" depart="2141.00" from="-468" to="-307"/>
    <trip id="425" depart="2147.00" from="307" to="470"/>
    <trip id="426" depart="2148.00" from="-462" to="-307"/>
    <trip id="427" depart="2148.00" from="-468" to="470"/>
    <trip id="428" depart="2150.00" from="307" to="462"/>
    <trip id="430" depart="2166.00" from="-462" to="468"/>
    <trip id="433" depart="2180.00" from="-462" to="470"/>
    <trip id="434" depart="2180.00" from="307" to="468"/>
    <trip id="435" depart="2190.00" from="307" to="468"/>
    <trip id="437" depart="2196.00" from="307" to="462"/>
    <trip id="438" depart="2202.00" from="307" to="468"/>
    <trip id="439" depart="2204.00" from="-462" to="-307"/>
    <trip id="440" depart="2207.00" from="-468" to="-307"/>
    <trip id="441" depart="2208.00" from="-462" to="-307"/>
    <trip id="442" depart="2214.00" from="-462" to="-307"/>
    <trip id="444" depart="2216.00" from="-470" to="-307"/>
    <trip id="445" depart="2232.00" from="-468" to="-307"/>
    <trip id="446" depart="2236.00" from="307" to="470"/>
    <trip id="447" depart="2239.00" from="-462" to="468"/>
    <trip id="448" depart="2240.00" from="-462" to="-307"/>
    <trip id="450" depart="2248.00" from="307" to="468"/>
    <trip id="451" depart="2256.00" from="307" to="462"/>
    <trip id="452" depart="2264.00" from="-470" to="462"/>
    <trip id="453" depart="2266.00" from="-462" to="468"/>
    <trip id="454" depart="2273.00" from="307" to="468"/>
    <trip id="456" depart="2276.00" from="307" to="470"/>
    <trip id="458" depart="2286.00" from="-470" to="-307"/>
    <trip id="460" depart="2293.00" from="-462" to="-307"/>
    <trip id="461" depart="2295.00" from="307" to="468"/>
    <trip id="463" depart="2302.00" from="-470" to="468"/>
    <trip id="464" depart="2304.00" from="-468" to="462"/>
    <trip id="465" depart="2306.00" from="-470" to="-307"/>
    <trip id="467" depart="2315.00" from="-470" to="-307"/>
    <trip id="468" depart="2326.00" from="-470" to="462"/>
    <trip id="470" depart="2334.00" from="-470" to="468"/>
    <trip id="471" depart="2363.00" from="307" to="462"/>
    <trip id="472" depart="2367.00" from="307" to="462"/>
    <trip id="473" depart="2370.00" from="-470" to="462"/>
    <trip id="474" depart="2377.00" from="-468" to="-307"/>
    <trip id="475" depart="2383.00" from="307" to="470"/>
    <trip id="476" depart="2384.00" from="-470" to="462"/>
    <trip id="477" depart="2388.00" from="307" to="470"/>
    <trip id="479" depart="2394.00" from="-468" to="470"/>
    <trip id="480" depart="2406.00" from="307" to="462"/>
    <trip id="481" depart="2410.00" from="-468" to="-307"/>
    <trip id="482" depart="2411.00" from="-470" to="-307"/>
    <trip id="483" depart="2411.00" from="-462" to="468"/>
    <trip id="484" depart="2414.00" from="307" to="470"/>
    <trip id="485" depart="2417.00" from="-468" to="462"/>
    <trip id="486" depart="2425.00" from="-468" to="-307"/>
    <trip id="487" depart="2432.00" from="-470" to="-307"/>
    <trip id="488" depart="2435.00" from="-468" to="462"/>
    <trip id="489" depart="2441.00" from="-468" to="470"/>
    <trip id="490" depart="2457.00" from="-462" to="470"/>
    <trip id="491" depart="2458.00" from="-462" to="-307"/>
    <trip id="492" depart="2474.00" from="307" to="468"/>
    <trip id="493" depart="2503.00" from="-468" to="-307"/>
    <trip id="495" depart="2505.00" from="307" to="470"/>
    <trip id="496" depart="2509.00" from="-462" to="470"/>
    <trip id="499" depart="2535.00" from="-462" to="-307"/>
    <trip id="500" depart="2536.00" from="-470" to="462"/>
    <trip id="501" depart="2539.00" from="307" to="468"/>
    <trip id="503" depart="2545.00" from="307" to="462"/>
    <trip id="504" depart="2551.00" from="-462" to="468"/>
    <trip id="506" depart="2558.00" from="-470" to="-307"/>
    <trip id="507" depart="2563.00" from="-468" to="462"/>
    <trip id="508" depart="2573.00" from="-468" to="-307"/>
    <trip id="509" depart="2578.00" from="307" to="468"/>
    <trip id="510" depart="2579.00" from="-470" to="468"/>
    <trip id="511" depart="2579.00" from="-470" to="468"/>
    <trip id="514" depart="2603.00" from="-468" to="-307"/>
    <trip id="517" depart="2608.00" from="-462" to="470"/>
    <trip id="518" depart="2611.00" from="-470" to="462"/>
    <trip id="519" depart="2624.00" from="307" to="468"/>
    <trip id="520" depart="2634.00" from="-462" to="-307"/>
    <trip id="521" depart="2642.00" from="-470" to="462"/>
    <trip id="523" depart="2650.00" from="307" to="470"/>
    <trip id="524" depart="2651.00" from="-468" to="470"/>
    <trip id="525" depart="2652.00" from="307" to="468"/>
    <trip id="526" depart="2657.00" from="-462" to="-307"/>
    <trip id="529" depart="2662.00" from="307" to="462"/>
    <trip id="530" depart="2668.00" from="-470" to="462"/>
    <trip id="531" depart="2673.00" from="-462" to="-307"/>
    <trip id="532" depart="2681.00" from="-470" to="-307"/>
    <trip id="533" depart="2681.00" from="307" to="462"/>
    <trip id="534" depart="2689.00" from="-468" to="462"/>
    <trip id="535" depart="2701.00" from="-468" to="470"/>
    <trip id="537" depart="2706.00" from="-462" to="468"/>
    <trip id="538" depart="2708.00" from="-468" to="470"/>
    <trip id="539" depart="2709.00" from="-470" to="468"/>
    <trip id="540" depart="2711.00" from="-470" to="-307"/>
    <trip id="542" depart="2718.00" from="-470" to="462"/>
    <trip id="543" depart="2724.00" from="307" to="470"/>
    <trip id="544" depart="2725.00" from="307" to="462"/>
    <trip id="545" depart="2727.00" from="-462" to="-307"/>
    <trip id="546" depart="2745.00" from="307" to="462"/>
    <trip id="547" depart="2753.00" from="307" to="462"/>
    <trip id="548" depart="2770.00" from="-470" to="468"/>
    <trip id="549" depart="2777.00" from="-470" to="468"/>
    <trip id="550" depart="2783.00" from="-470" to="462"/>
    <trip id="552" depart="2790.00" from="-468" to="-307"/>
    <trip id="553" depart="2797.00" from="307" to="470"/>
    <trip id="557" depart="2813.00" from="-470" to="-307"/>
    <trip id="558" depart="2819.00" from="-470" to="462"/>
    <trip id="559" depart="2828.00" from="307" to="470"/>
    <trip id="560" depart="2834.00" from="-462" to="-307"/>
    <trip id="561" depart="2836.00" from="307" to="468"/>
    <trip id="562" depart="2842.00" from="-468" to="470"/>
    <trip id="563" depart="2843.00" from="-470" to="-307"/>
    <trip id="564" depart="2847.00" from="-462" to="470"/>
    <trip id="565" depart="2849.00" from="-470" to="462"/>
    <trip id="566" depart="2860.00" from="-468" to="470"/>
    <trip id="567" depart="2863.00" from="307" to="468"/>
    <trip id="570" depart="2879.00" from="-468" to="470"/>
    <trip id="571" depart="2883.00" from="-470" to="462"/>
    <trip id="573" depart="2892.00" from="-462" to="-307"/>
    <trip id="575" depart="2913.00" from="307" to="462"/>
    <trip id="576" depart="2916.00" from="-468" to="470"/>
    <trip id="577" depart="2919.00" from="-470" to="468"/>
    <trip id="578" depart="2925.00" from="307" to="470"/>
    <trip id="579" depart="2927.00" from="307" to="470"/>
    <trip id="581" depart="2932.00" from="307" to="462"/>
    <trip id="582" depart="2938.00" from="-470" to="468"/>
    <trip id="584" depart="2952.00" from="307" to="468"/>
    <trip id="585" depart="2955.00" from="-468" to="470"/>
    <trip id="586" depart="2959.00" from="-470" to="462"/>
    <trip id="589" depart="2982.00" from="307" to="468"/>
    <trip id="590" depart="2987.00" from="-470" to="-307"/>
    <trip id="591" depart="2989.00" from="-462" to="468"/>
    <trip id="593" depart="2999.00" from="307" to="462"/>
    <trip id="594" depart="3005.00" from="-462" to="470"/>
    <trip id="595" depart="3007.00" from="-462" to="468"/>
    <trip id="596" depart="3013.00" from="307" to="462"/>
    <trip id="597" depart="3014.00" from="-468" to="-307"/>
    <trip id="598" depart="3020.00" from="307" to="470"/>
    <trip id="599" depart="3021.00" from="307" to="462"/>
    <trip id="600" depart="3028.00" from="-468" to="-307"/>
    <trip id="601" depart="3028.00" from="-470" to="468"/>
    <trip id="603" depart="3052.00" from="307" to="470"/>
    <trip id="605" depart="3064.00" from="-462" to="470"/>
    <trip id="606" depart="3070.00" from="-462" to="470"/>
    <trip id="607" depart="3071.00" from="-462" to="-307"/>
    <trip id="608" depart="3082.00" from="-468" to="-307"/>
    <trip id="609" depart="3093.00" from="-470" to="462"/>
    <trip id="610" depart="3094.00" from="-470" to="462"/>
    <trip id="612" depart="3108.00" from="307" to="468"/>
    <trip id="614" depart="3123.00" from="-462" to="468"/>
    <trip id="616" depart="3144.00" from="-462" to="-307"/>
    <trip id="617" depart="3148.00" from="-468" to="462"/>
    <trip id="618" depart="3153.00" from="-462" to="-307"/>
    <trip id="619" depart="3156.00" from="307" to="468"/>
    <trip id="621" depart="3157.00" from="307" to="468"/>
    <trip id="622" depart="3167.00" from="-468" to="462"/>
    <trip id="623" depart="3171.00" from="-470" to="468"/>
    <trip id="624" depart="3171.00" from="307" to="470"/>
    <trip id="627" depart="3204.00" from="307" to="468"/>
    <trip id="629" depart="3214.00" from="-468" to="462"/>
    <trip id="631" depart="3224.00" from="-462" to="470"/>
    <trip id="632" depart="3227.00" from="307" to="462"/>
    <trip id="633" depart="3231.00" from="307" to="468"/>
    <trip id="634" depart="3241.00" from="-462" to="468"/>
    <trip id="635" depart="3242.00" from="-470" to="-307"/>
    <trip id="637" depart="3244.00" from="-462" to="-307"/>
    <trip id="639" depart="3253.00" from="-468" to="462"/>
    <trip id="640" depart="3253.00" from="-462" to="468"/>
    <trip id="641" depart="3257.00" from="-468" to="-307"/>
    <trip id="642" depart="3266.00" from="-470" to="462"/>
    <trip id="643" depart="3272.00" from="-468" to="-307"/>