<?xml version="1.0" encoding="UTF-8"?>

<!-- generated on 2025-04-08 20:47:01 by Eclipse SUMO netgenerate Version 1.20.0
<configuration xmlns:xsi="http://www.w3.org/2001/XMLSchema-instance" xsi:noNamespaceSchemaLocation="http://sumo.dlr.de/xsd/netgenerateConfiguration.xsd">

    <random_network>
        <rand value="true"/>
        <rand.iterations value="75"/>
        <rand.max-distance value="500"/>
        <rand.min-distance value="200"/>
        <rand.min-angle value="90"/>
        <rand.connectivity value="0.75"/>
        <rand.grid value="true"/>
    </random_network>

    <output>
        <output-file value="random_grid_2.net.xml"/>
    </output>

    <processing>
        <fringe.guess value="true"/>
    </processing>

    <building_defaults>
        <default.lanenumber value="2"/>
    </building_defaults>

    <tls_building>
        <tls.guess value="True"/>
    </tls_building>

    <junctions>
        <no-turnarounds value="true"/>
        <junctions.join-same value="true"/>
    </junctions>

    <random_number>
        <seed value="2"/>
    </random_number>

</configuration>
-->

<net version="1.20" junctionCornerDetail="5" limitTurnSpeed="5.50" xmlns:xsi="http://www.w3.org/2001/XMLSchema-instance" xsi:noNamespaceSchemaLocation="http://sumo.dlr.de/xsd/net_file.xsd">

    <location netOffset="1400.00,1400.00" convBoundary="0.00,0.00,3400.00,2800.00" origBoundary="-1400.00,-1400.00,2000.00,1400.00" projParameter="!"/>

    <edge id=":1_0" function="internal">
        <lane id=":1_0_0" index="0" speed="6.51" length="9.03" shape="1395.20,1410.40 1394.85,1407.95 1393.80,1406.20 1392.05,1405.15 1389.60,1404.80"/>
    </edge>
    <edge id=":1_1" function="internal">
        <lane id=":1_1_0" index="0" speed="13.89" length="20.80" shape="1395.20,1410.40 1395.20,1389.60"/>
        <lane id=":1_1_1" index="1" speed="13.89" length="20.80" shape="1398.40,1410.40 1398.40,1389.60"/>
    </edge>
    <edge id=":1_3" function="internal">
        <lane id=":1_3_0" index="0" speed="9.26" length="5.01" shape="1398.40,1410.40 1399.11,1405.44"/>
    </edge>
    <edge id=":1_16" function="internal">
        <lane id=":1_16_0" index="0" speed="9.26" length="14.34" shape="1399.11,1405.44 1399.15,1405.15 1401.40,1401.40 1405.15,1399.15 1410.40,1398.40"/>
    </edge>
    <edge id=":1_4" function="internal">
        <lane id=":1_4_0" index="0" speed="6.51" length="9.03" shape="1410.40,1404.80 1407.95,1405.15 1406.20,1406.20 1405.15,1407.95 1404.80,1410.40"/>
    </edge>
    <edge id=":1_5" function="internal">
        <lane id=":1_5_0" index="0" speed="13.89" length="20.80" shape="1410.40,1404.80 1389.60,1404.80"/>
        <lane id=":1_5_1" index="1" speed="13.89" length="20.80" shape="1410.40,1401.60 1389.60,1401.60"/>
    </edge>
    <edge id=":1_7" function="internal">
        <lane id=":1_7_0" index="0" speed="9.26" length="5.01" shape="1410.40,1401.60 1405.44,1400.89"/>
    </edge>
    <edge id=":1_17" function="internal">
        <lane id=":1_17_0" index="0" speed="9.26" length="14.34" shape="1405.44,1400.89 1405.15,1400.85 1401.40,1398.60 1399.15,1394.85 1398.40,1389.60"/>
    </edge>
    <edge id=":1_8" function="internal">
        <lane id=":1_8_0" index="0" speed="6.51" length="9.03" shape="1404.80,1389.60 1405.15,1392.05 1406.20,1393.80 1407.95,1394.85 1410.40,1395.20"/>
    </edge>
    <edge id=":1_9" function="internal">
        <lane id=":1_9_0" index="0" speed="13.89" length="20.80" shape="1404.80,1389.60 1404.80,1410.40"/>
        <lane id=":1_9_1" index="1" speed="13.89" length="20.80" shape="1401.60,1389.60 1401.60,1410.40"/>
    </edge>
    <edge id=":1_11" function="internal">
        <lane id=":1_11_0" index="0" speed="9.26" length="5.01" shape="1401.60,1389.60 1400.89,1394.56"/>
    </edge>
    <edge id=":1_18" function="internal">
        <lane id=":1_18_0" index="0" speed="9.26" length="14.34" shape="1400.89,1394.56 1400.85,1394.85 1398.60,1398.60 1394.85,1400.85 1389.60,1401.60"/>
    </edge>
    <edge id=":1_12" function="internal">
        <lane id=":1_12_0" index="0" speed="6.51" length="9.03" shape="1389.60,1395.20 1392.05,1394.85 1393.80,1393.80 1394.85,1392.05 1395.20,1389.60"/>
    </edge>
    <edge id=":1_13" function="internal">
        <lane id=":1_13_0" index="0" speed="13.89" length="20.80" shape="1389.60,1395.20 1410.40,1395.20"/>
        <lane id=":1_13_1" index="1" speed="13.89" length="20.80" shape="1389.60,1398.40 1410.40,1398.40"/>
    </edge>
    <edge id=":1_15" function="internal">
        <lane id=":1_15_0" index="0" speed="9.26" length="5.01" shape="1389.60,1398.40 1394.56,1399.11"/>
    </edge>
    <edge id=":1_19" function="internal">
        <lane id=":1_19_0" index="0" speed="9.26" length="14.34" shape="1394.56,1399.11 1394.85,1399.15 1398.60,1401.40 1400.85,1405.15 1401.60,1410.40"/>
    </edge>
    <edge id=":1079_0" function="internal">
        <lane id=":1079_0_0" index="0" speed="3.90" length="2.58" shape="1995.20,1406.40 1995.10,1405.70 1994.80,1405.20 1994.30,1404.90 1993.60,1404.80"/>
        <lane id=":1079_0_1" index="1" speed="6.08" length="7.74" shape="1998.40,1406.40 1998.10,1404.30 1997.20,1402.80 1995.70,1401.90 1993.60,1401.60"/>
    </edge>
    <edge id=":1079_2" function="internal">
        <lane id=":1079_2_0" index="0" speed="8.96" length="18.06" shape="1993.60,1395.20 1998.50,1395.90 2002.00,1398.00 2004.10,1401.50 2004.80,1406.40"/>
        <lane id=":1079_2_1" index="1" speed="7.66" length="12.90" shape="1993.60,1398.40 1997.10,1398.90 1999.60,1400.40 2001.10,1402.90 2001.60,1406.40"/>
    </edge>
    <edge id=":1088_0" function="internal">
        <lane id=":1088_0_0" index="0" speed="8.96" length="18.06" shape="2604.80,2393.60 2604.10,2398.50 2602.00,2402.00 2598.50,2404.10 2593.60,2404.80"/>
        <lane id=":1088_0_1" index="1" speed="7.66" length="12.90" shape="2601.60,2393.60 2601.10,2397.10 2599.60,2399.60 2597.10,2401.10 2593.60,2401.60"/>
    </edge>
    <edge id=":1088_2" function="internal">
        <lane id=":1088_2_0" index="0" speed="3.90" length="2.58" shape="2593.60,2395.20 2594.30,2395.10 2594.80,2394.80 2595.10,2394.30 2595.20,2393.60"/>
        <lane id=":1088_2_1" index="1" speed="6.08" length="7.74" shape="2593.60,2398.40 2595.70,2398.10 2597.20,2397.20 2598.10,2395.70 2598.40,2393.60"/>
    </edge>
    <edge id=":1092_0" function="internal">
        <lane id=":1092_0_0" index="0" speed="11.62" length="12.44" shape="3010.40,1804.80 3006.51,1805.01 3003.27,1805.62 3000.66,1806.65 2998.69,1808.10"/>
        <lane id=":1092_0_1" index="1" speed="12.70" length="14.95" shape="3010.40,1801.60 3005.88,1801.86 3002.04,1802.66 2998.89,1803.98 2996.43,1805.83"/>
    </edge>
    <edge id=":1092_2" function="internal">
        <lane id=":1092_2_0" index="0" speed="9.26" length="3.51" shape="3010.40,1801.60 3006.93,1801.10"/>
    </edge>
    <edge id=":1092_9" function="internal">
        <lane id=":1092_9_0" index="0" speed="9.26" length="15.84" shape="3006.93,1801.10 3005.15,1800.85 3001.40,1798.60 2999.15,1794.85 2998.40,1789.60"/>
    </edge>
    <edge id=":1092_3" function="internal">
        <lane id=":1092_3_0" index="0" speed="6.51" length="9.03" shape="3004.80,1789.60 3005.15,1792.05 3006.20,1793.80 3007.95,1794.85 3010.40,1795.20"/>
    </edge>
    <edge id=":1092_4" function="internal">
        <lane id=":1092_4_0" index="0" speed="13.89" length="19.96" shape="3004.80,1789.60 3004.42,1795.40 3003.27,1800.42 3001.36,1804.65 2998.69,1808.10"/>
        <lane id=":1092_4_1" index="1" speed="13.70" length="17.45" shape="3001.60,1789.60 3001.28,1794.76 3000.31,1799.19 2998.69,1802.88 2996.43,1805.83"/>
    </edge>
    <edge id=":1092_6" function="internal">
        <lane id=":1092_6_0" index="0" speed="11.62" length="12.44" shape="2991.90,1801.31 2993.35,1799.34 2994.38,1796.73 2994.99,1793.49 2995.20,1789.60"/>
        <lane id=":1092_6_1" index="1" speed="12.70" length="14.95" shape="2994.17,1803.57 2996.02,1801.11 2997.34,1797.96 2998.14,1794.12 2998.40,1789.60"/>
    </edge>
    <edge id=":1092_8" function="internal">
        <lane id=":1092_8_0" index="0" speed="13.70" length="17.45" shape="2994.17,1803.57 2997.12,1801.31 3000.81,1799.69 3005.24,1798.72 3010.40,1798.40"/>
    </edge>
    <edge id=":1318_0" function="internal">
        <lane id=":1318_0_0" index="0" speed="13.89" length="0.10" shape="600.00,404.80 600.00,404.80"/>
        <lane id=":1318_0_1" index="1" speed="13.89" length="0.10" shape="600.00,401.60 600.00,401.60"/>
    </edge>
    <edge id=":1318_2" function="internal">
        <lane id=":1318_2_0" index="0" speed="13.89" length="0.10" shape="600.00,395.20 600.00,395.20"/>
        <lane id=":1318_2_1" index="1" speed="13.89" length="0.10" shape="600.00,398.40 600.00,398.40"/>
    </edge>
    <edge id=":14_0" function="internal">
        <lane id=":14_0_0" index="0" speed="6.51" length="9.03" shape="1595.20,1410.40 1594.85,1407.95 1593.80,1406.20 1592.05,1405.15 1589.60,1404.80"/>
    </edge>
    <edge id=":14_1" function="internal">
        <lane id=":14_1_0" index="0" speed="13.89" length="20.80" shape="1595.20,1410.40 1595.20,1389.60"/>
        <lane id=":14_1_1" index="1" speed="13.89" length="20.80" shape="1598.40,1410.40 1598.40,1389.60"/>
    </edge>
    <edge id=":14_3" function="internal">
        <lane id=":14_3_0" index="0" speed="9.26" length="5.01" shape="1598.40,1410.40 1599.11,1405.44"/>
    </edge>
    <edge id=":14_16" function="internal">
        <lane id=":14_16_0" index="0" speed="9.26" length="14.34" shape="1599.11,1405.44 1599.15,1405.15 1601.40,1401.40 1605.15,1399.15 1610.40,1398.40"/>
    </edge>
    <edge id=":14_4" function="internal">
        <lane id=":14_4_0" index="0" speed="6.51" length="9.03" shape="1610.40,1404.80 1607.95,1405.15 1606.20,1406.20 1605.15,1407.95 1604.80,1410.40"/>
    </edge>
    <edge id=":14_5" function="internal">
        <lane id=":14_5_0" index="0" speed="13.89" length="20.80" shape="1610.40,1404.80 1589.60,1404.80"/>
        <lane id=":14_5_1" index="1" speed="13.89" length="20.80" shape="1610.40,1401.60 1589.60,1401.60"/>
    </edge>
    <edge id=":14_7" function="internal">
        <lane id=":14_7_0" index="0" speed="9.26" length="5.01" shape="1610.40,1401.60 1605.44,1400.89"/>
    </edge>
    <edge id=":14_17" function="internal">
        <lane id=":14_17_0" index="0" speed="9.26" length="14.34" shape="1605.44,1400.89 1605.15,1400.85 1601.40,1398.60 1599.15,1394.85 1598.40,1389.60"/>
    </edge>
    <edge id=":14_8" function="internal">
        <lane id=":14_8_0" index="0" speed="6.51" length="9.03" shape="1604.80,1389.60 1605.15,1392.05 1606.20,1393.80 1607.95,1394.85 1610.40,1395.20"/>
    </edge>
    <edge id=":14_9" function="internal">
        <lane id=":14_9_0" index="0" speed="13.89" length="20.80" shape="1604.80,1389.60 1604.80,1410.40"/>
        <lane id=":14_9_1" index="1" speed="13.89" length="20.80" shape="1601.60,1389.60 1601.60,1410.40"/>
    </edge>
    <edge id=":14_11" function="internal">
        <lane id=":14_11_0" index="0" speed="9.26" length="5.01" shape="1601.60,1389.60 1600.89,1394.56"/>
    </edge>
    <edge id=":14_18" function="internal">
        <lane id=":14_18_0" index="0" speed="9.26" length="14.34" shape="1600.89,1394.56 1600.85,1394.85 1598.60,1398.60 1594.85,1400.85 1589.60,1401.60"/>
    </edge>
    <edge id=":14_12" function="internal">
        <lane id=":14_12_0" index="0" speed="6.51" length="9.03" shape="1589.60,1395.20 1592.05,1394.85 1593.80,1393.80 1594.85,1392.05 1595.20,1389.60"/>
    </edge>
    <edge id=":14_13" function="internal">
        <lane id=":14_13_0" index="0" speed="13.89" length="20.80" shape="1589.60,1395.20 1610.40,1395.20"/>
        <lane id=":14_13_1" index="1" speed="13.89" length="20.80" shape="1589.60,1398.40 1610.40,1398.40"/>
    </edge>
    <edge id=":14_15" function="internal">
        <lane id=":14_15_0" index="0" speed="9.26" length="5.01" shape="1589.60,1398.40 1594.56,1399.11"/>
    </edge>
    <edge id=":14_19" function="internal">
        <lane id=":14_19_0" index="0" speed="9.26" length="14.34" shape="1594.56,1399.11 1594.85,1399.15 1598.60,1401.40 1600.85,1405.15 1601.60,1410.40"/>
    </edge>
    <edge id=":1480_0" function="internal">
        <lane id=":1480_0_0" index="0" speed="6.51" length="9.03" shape="195.20,410.40 194.85,407.95 193.80,406.20 192.05,405.15 189.60,404.80"/>
    </edge>
    <edge id=":1480_1" function="internal">
        <lane id=":1480_1_0" index="0" speed="13.89" length="20.80" shape="195.20,410.40 195.20,389.60"/>
        <lane id=":1480_1_1" index="1" speed="13.89" length="20.80" shape="198.40,410.40 198.40,389.60"/>
    </edge>
    <edge id=":1480_3" function="internal">
        <lane id=":1480_3_0" index="0" speed="9.26" length="5.01" shape="198.40,410.40 199.11,405.44"/>
    </edge>
    <edge id=":1480_16" function="internal">
        <lane id=":1480_16_0" index="0" speed="9.26" length="14.34" shape="199.11,405.44 199.15,405.15 201.40,401.40 205.15,399.15 210.40,398.40"/>
    </edge>
    <edge id=":1480_4" function="internal">
        <lane id=":1480_4_0" index="0" speed="6.51" length="9.03" shape="210.40,404.80 207.95,405.15 206.20,406.20 205.15,407.95 204.80,410.40"/>
    </edge>
    <edge id=":1480_5" function="internal">
        <lane id=":1480_5_0" index="0" speed="13.89" length="20.80" shape="210.40,404.80 189.60,404.80"/>
        <lane id=":1480_5_1" index="1" speed="13.89" length="20.80" shape="210.40,401.60 189.60,401.60"/>
    </edge>
    <edge id=":1480_7" function="internal">
        <lane id=":1480_7_0" index="0" speed="9.26" length="5.01" shape="210.40,401.60 205.44,400.89"/>
    </edge>
    <edge id=":1480_17" function="internal">
        <lane id=":1480_17_0" index="0" speed="9.26" length="14.34" shape="205.44,400.89 205.15,400.85 201.40,398.60 199.15,394.85 198.40,389.60"/>
    </edge>
    <edge id=":1480_8" function="internal">
        <lane id=":1480_8_0" index="0" speed="6.51" length="9.03" shape="204.80,389.60 205.15,392.05 206.20,393.80 207.95,394.85 210.40,395.20"/>
    </edge>
    <edge id=":1480_9" function="internal">
        <lane id=":1480_9_0" index="0" speed="13.89" length="20.80" shape="204.80,389.60 204.80,410.40"/>
        <lane id=":1480_9_1" index="1" speed="13.89" length="20.80" shape="201.60,389.60 201.60,410.40"/>
    </edge>
    <edge id=":1480_11" function="internal">
        <lane id=":1480_11_0" index="0" speed="9.26" length="5.01" shape="201.60,389.60 200.89,394.56"/>
    </edge>
    <edge id=":1480_18" function="internal">
        <lane id=":1480_18_0" index="0" speed="9.26" length="14.34" shape="200.89,394.56 200.85,394.85 198.60,398.60 194.85,400.85 189.60,401.60"/>
    </edge>
    <edge id=":1480_12" function="internal">
        <lane id=":1480_12_0" index="0" speed="6.51" length="9.03" shape="189.60,395.20 192.05,394.85 193.80,393.80 194.85,392.05 195.20,389.60"/>
    </edge>
    <edge id=":1480_13" function="internal">
        <lane id=":1480_13_0" index="0" speed="13.89" length="20.80" shape="189.60,395.20 210.40,395.20"/>
        <lane id=":1480_13_1" index="1" speed="13.89" length="20.80" shape="189.60,398.40 210.40,398.40"/>
    </edge>
    <edge id=":1480_15" function="internal">
        <lane id=":1480_15_0" index="0" speed="9.26" length="5.01" shape="189.60,398.40 194.56,399.11"/>
    </edge>
    <edge id=":1480_19" function="internal">
        <lane id=":1480_19_0" index="0" speed="9.26" length="14.34" shape="194.56,399.11 194.85,399.15 198.60,401.40 200.85,405.15 201.60,410.40"/>
    </edge>
    <edge id=":16_0" function="internal">
        <lane id=":16_0_0" index="0" speed="6.51" length="9.03" shape="1395.20,1210.40 1394.85,1207.95 1393.80,1206.20 1392.05,1205.15 1389.60,1204.80"/>
    </edge>
    <edge id=":16_1" function="internal">
        <lane id=":16_1_0" index="0" speed="13.89" length="20.80" shape="1395.20,1210.40 1395.20,1189.60"/>
        <lane id=":16_1_1" index="1" speed="13.89" length="20.80" shape="1398.40,1210.40 1398.40,1189.60"/>
    </edge>
    <edge id=":16_3" function="internal">
        <lane id=":16_3_0" index="0" speed="13.89" length="20.80" shape="1404.80,1189.60 1404.80,1210.40"/>
        <lane id=":16_3_1" index="1" speed="13.89" length="20.80" shape="1401.60,1189.60 1401.60,1210.40"/>
    </edge>
    <edge id=":16_5" function="internal">
        <lane id=":16_5_0" index="0" speed="9.26" length="5.01" shape="1401.60,1189.60 1400.89,1194.56"/>
    </edge>
    <edge id=":16_9" function="internal">
        <lane id=":16_9_0" index="0" speed="9.26" length="14.34" shape="1400.89,1194.56 1400.85,1194.85 1398.60,1198.60 1394.85,1200.85 1389.60,1201.60"/>
    </edge>
    <edge id=":16_6" function="internal">
        <lane id=":16_6_0" index="0" speed="6.51" length="9.03" shape="1389.60,1195.20 1392.05,1194.85 1393.80,1193.80 1394.85,1192.05 1395.20,1189.60"/>
        <lane id=":16_6_1" index="1" speed="8.00" length="14.19" shape="1389.60,1198.40 1393.45,1197.85 1396.20,1196.20 1397.85,1193.45 1398.40,1189.60"/>
    </edge>
    <edge id=":16_8" function="internal">
        <lane id=":16_8_0" index="0" speed="9.26" length="19.35" shape="1389.60,1198.40 1394.85,1199.15 1398.60,1201.40 1400.85,1205.15 1401.60,1210.40"/>
    </edge>
    <edge id=":18_0" function="internal">
        <lane id=":18_0_0" index="0" speed="6.51" length="9.03" shape="1595.20,1610.40 1594.85,1607.95 1593.80,1606.20 1592.05,1605.15 1589.60,1604.80"/>
    </edge>
    <edge id=":18_1" function="internal">
        <lane id=":18_1_0" index="0" speed="13.89" length="20.80" shape="1595.20,1610.40 1595.20,1589.60"/>
        <lane id=":18_1_1" index="1" speed="13.89" length="20.80" shape="1598.40,1610.40 1598.40,1589.60"/>
    </edge>
    <edge id=":18_3" function="internal">
        <lane id=":18_3_0" index="0" speed="9.26" length="5.01" shape="1598.40,1610.40 1599.11,1605.44"/>
    </edge>
    <edge id=":18_16" function="internal">
        <lane id=":18_16_0" index="0" speed="9.26" length="14.34" shape="1599.11,1605.44 1599.15,1605.15 1601.40,1601.40 1605.15,1599.15 1610.40,1598.40"/>
    </edge>
    <edge id=":18_4" function="internal">
        <lane id=":18_4_0" index="0" speed="6.51" length="9.03" shape="1610.40,1604.80 1607.95,1605.15 1606.20,1606.20 1605.15,1607.95 1604.80,1610.40"/>
    </edge>
    <edge id=":18_5" function="internal">
        <lane id=":18_5_0" index="0" speed="13.89" length="20.80" shape="1610.40,1604.80 1589.60,1604.80"/>
        <lane id=":18_5_1" index="1" speed="13.89" length="20.80" shape="1610.40,1601.60 1589.60,1601.60"/>
    </edge>
    <edge id=":18_7" function="internal">
        <lane id=":18_7_0" index="0" speed="9.26" length="5.01" shape="1610.40,1601.60 1605.44,1600.89"/>
    </edge>
    <edge id=":18_17" function="internal">
        <lane id=":18_17_0" index="0" speed="9.26" length="14.34" shape="1605.44,1600.89 1605.15,1600.85 1601.40,1598.60 1599.15,1594.85 1598.40,1589.60"/>
    </edge>
    <edge id=":18_8" function="internal">
        <lane id=":18_8_0" index="0" speed="6.51" length="9.03" shape="1604.80,1589.60 1605.15,1592.05 1606.20,1593.80 1607.95,1594.85 1610.40,1595.20"/>
    </edge>
    <edge id=":18_9" function="internal">
        <lane id=":18_9_0" index="0" speed="13.89" length="20.80" shape="1604.80,1589.60 1604.80,1610.40"/>
        <lane id=":18_9_1" index="1" speed="13.89" length="20.80" shape="1601.60,1589.60 1601.60,1610.40"/>
    </edge>
    <edge id=":18_11" function="internal">
        <lane id=":18_11_0" index="0" speed="9.26" length="5.01" shape="1601.60,1589.60 1600.89,1594.56"/>
    </edge>
    <edge id=":18_18" function="internal">
        <lane id=":18_18_0" index="0" speed="9.26" length="14.34" shape="1600.89,1594.56 1600.85,1594.85 1598.60,1598.60 1594.85,1600.85 1589.60,1601.60"/>
    </edge>
    <edge id=":18_12" function="internal">
        <lane id=":18_12_0" index="0" speed="6.51" length="9.03" shape="1589.60,1595.20 1592.05,1594.85 1593.80,1593.80 1594.85,1592.05 1595.20,1589.60"/>
    </edge>
    <edge id=":18_13" function="internal">
        <lane id=":18_13_0" index="0" speed="13.89" length="20.80" shape="1589.60,1595.20 1610.40,1595.20"/>
        <lane id=":18_13_1" index="1" speed="13.89" length="20.80" shape="1589.60,1598.40 1610.40,1598.40"/>
    </edge>
    <edge id=":18_15" function="internal">
        <lane id=":18_15_0" index="0" speed="9.26" length="5.01" shape="1589.60,1598.40 1594.56,1599.11"/>
    </edge>
    <edge id=":18_19" function="internal">
        <lane id=":18_19_0" index="0" speed="9.26" length="14.34" shape="1594.56,1599.11 1594.85,1599.15 1598.60,1601.40 1600.85,1605.15 1601.60,1610.40"/>
    </edge>
    <edge id=":2_0" function="internal">
        <lane id=":2_0_0" index="0" speed="13.89" length="20.80" shape="1395.20,1610.40 1395.20,1589.60"/>
        <lane id=":2_0_1" index="1" speed="13.89" length="20.80" shape="1398.40,1610.40 1398.40,1589.60"/>
    </edge>
    <edge id=":2_2" function="internal">
        <lane id=":2_2_0" index="0" speed="9.26" length="5.01" shape="1398.40,1610.40 1399.11,1605.44"/>
    </edge>
    <edge id=":2_9" function="internal">
        <lane id=":2_9_0" index="0" speed="9.26" length="14.34" shape="1399.11,1605.44 1399.15,1605.15 1401.40,1601.40 1405.15,1599.15 1410.40,1598.40"/>
    </edge>
    <edge id=":2_3" function="internal">
        <lane id=":2_3_0" index="0" speed="6.51" length="9.03" shape="1410.40,1604.80 1407.95,1605.15 1406.20,1606.20 1405.15,1607.95 1404.80,1610.40"/>
        <lane id=":2_3_1" index="1" speed="8.00" length="14.19" shape="1410.40,1601.60 1406.55,1602.15 1403.80,1603.80 1402.15,1606.55 1401.60,1610.40"/>
    </edge>
    <edge id=":2_5" function="internal">
        <lane id=":2_5_0" index="0" speed="9.26" length="19.35" shape="1410.40,1601.60 1405.15,1600.85 1401.40,1598.60 1399.15,1594.85 1398.40,1589.60"/>
    </edge>
    <edge id=":2_6" function="internal">
        <lane id=":2_6_0" index="0" speed="6.51" length="9.03" shape="1404.80,1589.60 1405.15,1592.05 1406.20,1593.80 1407.95,1594.85 1410.40,1595.20"/>
    </edge>
    <edge id=":2_7" function="internal">
        <lane id=":2_7_0" index="0" speed="13.89" length="20.80" shape="1404.80,1589.60 1404.80,1610.40"/>
        <lane id=":2_7_1" index="1" speed="13.89" length="20.80" shape="1401.60,1589.60 1401.60,1610.40"/>
    </edge>
    <edge id=":213_0" function="internal">
        <lane id=":213_0_0" index="0" speed="6.51" length="9.03" shape="1395.20,2010.40 1394.85,2007.95 1393.80,2006.20 1392.05,2005.15 1389.60,2004.80"/>
    </edge>
    <edge id=":213_1" function="internal">
        <lane id=":213_1_0" index="0" speed="13.89" length="20.80" shape="1395.20,2010.40 1395.20,1989.60"/>
        <lane id=":213_1_1" index="1" speed="13.89" length="20.80" shape="1398.40,2010.40 1398.40,1989.60"/>
    </edge>
    <edge id=":213_3" function="internal">
        <lane id=":213_3_0" index="0" speed="13.89" length="20.80" shape="1404.80,1989.60 1404.80,2010.40"/>
        <lane id=":213_3_1" index="1" speed="13.89" length="20.80" shape="1401.60,1989.60 1401.60,2010.40"/>
    </edge>
    <edge id=":213_5" function="internal">
        <lane id=":213_5_0" index="0" speed="9.26" length="5.01" shape="1401.60,1989.60 1400.89,1994.56"/>
    </edge>
    <edge id=":213_9" function="internal">
        <lane id=":213_9_0" index="0" speed="9.26" length="14.34" shape="1400.89,1994.56 1400.85,1994.85 1398.60,1998.60 1394.85,2000.85 1389.60,2001.60"/>
    </edge>
    <edge id=":213_6" function="internal">
        <lane id=":213_6_0" index="0" speed="6.51" length="9.03" shape="1389.60,1995.20 1392.05,1994.85 1393.80,1993.80 1394.85,1992.05 1395.20,1989.60"/>
        <lane id=":213_6_1" index="1" speed="8.00" length="14.19" shape="1389.60,1998.40 1393.45,1997.85 1396.20,1996.20 1397.85,1993.45 1398.40,1989.60"/>
    </edge>
    <edge id=":213_8" function="internal">
        <lane id=":213_8_0" index="0" speed="9.26" length="19.35" shape="1389.60,1998.40 1394.85,1999.15 1398.60,2001.40 1400.85,2005.15 1401.60,2010.40"/>
    </edge>
    <edge id=":228_0" function="internal">
        <lane id=":228_0_0" index="0" speed="13.89" length="20.80" shape="1595.20,1010.40 1595.20,989.60"/>
        <lane id=":228_0_1" index="1" speed="13.89" length="20.80" shape="1598.40,1010.40 1598.40,989.60"/>
    </edge>
    <edge id=":228_2" function="internal">
        <lane id=":228_2_0" index="0" speed="9.26" length="5.01" shape="1598.40,1010.40 1599.11,1005.44"/>
    </edge>
    <edge id=":228_9" function="internal">
        <lane id=":228_9_0" index="0" speed="9.26" length="14.34" shape="1599.11,1005.44 1599.15,1005.15 1601.40,1001.40 1605.15,999.15 1610.40,998.40"/>
    </edge>
    <edge id=":228_3" function="internal">
        <lane id=":228_3_0" index="0" speed="6.51" length="9.03" shape="1610.40,1004.80 1607.95,1005.15 1606.20,1006.20 1605.15,1007.95 1604.80,1010.40"/>
        <lane id=":228_3_1" index="1" speed="8.00" length="14.19" shape="1610.40,1001.60 1606.55,1002.15 1603.80,1003.80 1602.15,1006.55 1601.60,1010.40"/>
    </edge>
    <edge id=":228_5" function="internal">
        <lane id=":228_5_0" index="0" speed="9.26" length="19.35" shape="1610.40,1001.60 1605.15,1000.85 1601.40,998.60 1599.15,994.85 1598.40,989.60"/>
    </edge>
    <edge id=":228_6" function="internal">
        <lane id=":228_6_0" index="0" speed="6.51" length="9.03" shape="1604.80,989.60 1605.15,992.05 1606.20,993.80 1607.95,994.85 1610.40,995.20"/>
    </edge>
    <edge id=":228_7" function="internal">
        <lane id=":228_7_0" index="0" speed="13.89" length="20.80" shape="1604.80,989.60 1604.80,1010.40"/>
        <lane id=":228_7_1" index="1" speed="13.89" length="20.80" shape="1601.60,989.60 1601.60,1010.40"/>
    </edge>
    <edge id=":232_0" function="internal">
        <lane id=":232_0_0" index="0" speed="13.89" length="20.80" shape="995.20,1010.40 995.20,989.60"/>
        <lane id=":232_0_1" index="1" speed="13.89" length="20.80" shape="998.40,1010.40 998.40,989.60"/>
    </edge>
    <edge id=":232_2" function="internal">
        <lane id=":232_2_0" index="0" speed="9.26" length="5.01" shape="998.40,1010.40 999.11,1005.44"/>
    </edge>
    <edge id=":232_9" function="internal">
        <lane id=":232_9_0" index="0" speed="9.26" length="14.34" shape="999.11,1005.44 999.15,1005.15 1001.40,1001.40 1005.15,999.15 1010.40,998.40"/>
    </edge>
    <edge id=":232_3" function="internal">
        <lane id=":232_3_0" index="0" speed="6.51" length="9.03" shape="1010.40,1004.80 1007.95,1005.15 1006.20,1006.20 1005.15,1007.95 1004.80,1010.40"/>
        <lane id=":232_3_1" index="1" speed="8.00" length="14.19" shape="1010.40,1001.60 1006.55,1002.15 1003.80,1003.80 1002.15,1006.55 1001.60,1010.40"/>
    </edge>
    <edge id=":232_5" function="internal">
        <lane id=":232_5_0" index="0" speed="9.26" length="19.35" shape="1010.40,1001.60 1005.15,1000.85 1001.40,998.60 999.15,994.85 998.40,989.60"/>
    </edge>
    <edge id=":232_6" function="internal">
        <lane id=":232_6_0" index="0" speed="6.51" length="9.03" shape="1004.80,989.60 1005.15,992.05 1006.20,993.80 1007.95,994.85 1010.40,995.20"/>
    </edge>
    <edge id=":232_7" function="internal">
        <lane id=":232_7_0" index="0" speed="13.89" length="20.80" shape="1004.80,989.60 1004.80,1010.40"/>
        <lane id=":232_7_1" index="1" speed="13.89" length="20.80" shape="1001.60,989.60 1001.60,1010.40"/>
    </edge>
    <edge id=":237_0" function="internal">
        <lane id=":237_0_0" index="0" speed="8.96" length="18.06" shape="1795.20,2206.40 1795.90,2201.50 1798.00,2198.00 1801.50,2195.90 1806.40,2195.20"/>
        <lane id=":237_0_1" index="1" speed="7.66" length="12.90" shape="1798.40,2206.40 1798.90,2202.90 1800.40,2200.40 1802.90,2198.90 1806.40,2198.40"/>
    </edge>
    <edge id=":237_2" function="internal">
        <lane id=":237_2_0" index="0" speed="3.90" length="2.58" shape="1806.40,2204.80 1805.70,2204.90 1805.20,2205.20 1804.90,2205.70 1804.80,2206.40"/>
        <lane id=":237_2_1" index="1" speed="6.08" length="7.74" shape="1806.40,2201.60 1804.30,2201.90 1802.80,2202.80 1801.90,2204.30 1801.60,2206.40"/>
    </edge>
    <edge id=":24_0" function="internal">
        <lane id=":24_0_0" index="0" speed="13.89" length="20.80" shape="1595.20,1210.40 1595.20,1189.60"/>
        <lane id=":24_0_1" index="1" speed="13.89" length="20.80" shape="1598.40,1210.40 1598.40,1189.60"/>
    </edge>
    <edge id=":24_2" function="internal">
        <lane id=":24_2_0" index="0" speed="9.26" length="5.01" shape="1598.40,1210.40 1599.11,1205.44"/>
    </edge>
    <edge id=":24_9" function="internal">
        <lane id=":24_9_0" index="0" speed="9.26" length="14.34" shape="1599.11,1205.44 1599.15,1205.15 1601.40,1201.40 1605.15,1199.15 1610.40,1198.40"/>
    </edge>
    <edge id=":24_3" function="internal">
        <lane id=":24_3_0" index="0" speed="6.51" length="9.03" shape="1610.40,1204.80 1607.95,1205.15 1606.20,1206.20 1605.15,1207.95 1604.80,1210.40"/>
        <lane id=":24_3_1" index="1" speed="8.00" length="14.19" shape="1610.40,1201.60 1606.55,1202.15 1603.80,1203.80 1602.15,1206.55 1601.60,1210.40"/>
    </edge>
    <edge id=":24_5" function="internal">
        <lane id=":24_5_0" index="0" speed="9.26" length="19.35" shape="1610.40,1201.60 1605.15,1200.85 1601.40,1198.60 1599.15,1194.85 1598.40,1189.60"/>
    </edge>
    <edge id=":24_6" function="internal">
        <lane id=":24_6_0" index="0" speed="6.51" length="9.03" shape="1604.80,1189.60 1605.15,1192.05 1606.20,1193.80 1607.95,1194.85 1610.40,1195.20"/>
    </edge>
    <edge id=":24_7" function="internal">
        <lane id=":24_7_0" index="0" speed="13.89" length="20.80" shape="1604.80,1189.60 1604.80,1210.40"/>
        <lane id=":24_7_1" index="1" speed="13.89" length="20.80" shape="1601.60,1189.60 1601.60,1210.40"/>
    </edge>
    <edge id=":243_0" function="internal">
        <lane id=":243_0_0" index="0" speed="6.51" length="9.03" shape="2195.20,2210.40 2194.85,2207.95 2193.80,2206.20 2192.05,2205.15 2189.60,2204.80"/>
    </edge>