<?xml version="1.0" encoding="UTF-8"?>
<routes xmlns:xsi="http://www.w3.org/2001/XMLSchema-instance" xsi:noNamespaceSchemaLocation="http://sumo.dlr.de/xsd/routes_file.xsd">
	<flow id="6_to_35[1][1][1][1]_at_0" departPos="free" departSpeed="speedLimit" begin="0" from="6" to="35[1][1][1][1]" end="300" vehsPerHour="360.0"/>
	<flow id="1[0]_to_40[1]_at_0" departPos="free" departSpeed="speedLimit" begin="0" from="1[0]" to="40[1]" end="300" vehsPerHour="360.0"/>
	<flow id="3[0]_to_3[1]b_at_0" departPos="free" departSpeed="speedLimit" begin="0" from="3[0]" to="3[1]b" end="300" vehsPerHour="360.0"/>
	<flow id="1[0]_to_35[1][1][1][1]_at_0" departPos="free" departSpeed="speedLimit" begin="0" from="1[0]" to="35[1][1][1][1]" end="300" vehsPerHour="216.0"/>
	<flow id="63[0]_to_4[1][1][1]_at_0" departPos="free" departSpeed="speedLimit" begin="0" from="63[0]" to="4[1][1][1]" end="300" vehsPerHour="216.0"/>
	<flow id="43_to_70_at_0" departPos="free" departSpeed="speedLimit" begin="0" from="43" to="70" end="300" vehsPerHour="216.0"/>
	<flow id="6_to_3[1]b_at_300" departPos="free" departSpeed="speedLimit" begin="300" from="6" to="3[1]b" end="600" vehsPerHour="630.0"/>
	<flow id="1[0]_to_40[1]_at_300" departPos="free" departSpeed="speedLimit" begin="300" from="1[0]" to="40[1]" end="600" vehsPerHour="630.0"/>
	<flow id="3[0]_to_3[1]b_at_300" departPos="free" departSpeed="speedLimit" begin="300" from="3[0]" to="3[1]b" end="600" vehsPerHour="630.0"/>
	<flow id="1[0]_to_35[1][1][1][1]_at_300" departPos="free" departSpeed="speedLimit" begin="300" from="1[0]" to="35[1][1][1][1]" end="600" vehsPerHour="378.0"/>
	<flow id="63[0]_to_4[1][1][1]_at_300" departPos="free" departSpeed="speedLimit" begin="300" from="63[0]" to="4[1][1][1]" end="600" vehsPerHour="378.0"/>
	<flow id="43_to_70_at_300" departPos="free" departSpeed="speedLimit" begin="300" from="43" to="70" end="600" vehsPerHour="378.0"/>
	<flow id="6_to_35[1][1][1][1]_at_600" departPos="free" departSpeed="speedLimit" begin="600" from="6" to="35[1][1][1][1]" end="900" vehsPerHour="810.0"/>
	<flow id="1[0]_to_40[1]_at_600" departPos="free" departSpeed="speedLimit" begin="600" from="1[0]" to="40[1]" end="900" vehsPerHour="810.0"/>
	<flow id="3[0]_to_3[1]b_at_600" departPos="free" departSpeed="speedLimit" begin="600" from="3[0]" to="3[1]b" end="900" vehsPerHour="810.0"/>
	<flow id="1[0]_to_35[1][1][1][1]_at_600" departPos="free" departSpeed="speedLimit" begin="600" from="1[0]" to="35[1][1][1][1]" end="900" vehsPerHour="486.0"/>
	<flow id="63[0]_to_4[1][1][1]_at_600" departPos="free" departSpeed="speedLimit" begin="600" from="63[0]" to="4[1][1][1]" end="900" vehsPerHour="486.0"/>
	<flow id="43_to_70_at_600" departPos="free" departSpeed="speedLimit" begin="600" from="43" to="70" end="900" vehsPerHour="486.0"/>
	<flow id="6_to_35[1][1][1][1]_at_900" departPos="free" departSpeed="speedLimit" begin="900" from="6" to="35[1][1][1][1]" end="1200" vehsPerHour="900.0"/>
	<flow id="1[0]_to_40[1]_at_900" departPos="free" departSpeed="speedLimit" begin="900" from="1[0]" to="40[1]" end="1200" vehsPerHour="900.0"/>
	<flow id="3[0]_to_3[1]b_at_900" departPos="free" departSpeed="speedLimit" begin="900" from="3[0]" to="3[1]b" end="1200" vehsPerHour="900.0"/>
	<flow id="1[0]_to_35[1][1][1][1]_at_900" departPos="free" departSpeed="speedLimit" begin="900" from="1[0]" to="35[1][1][1][1]" end="1200" vehsPerHour="540.0"/>
	<flow id="63[0]_to_4[1][1][1]_at_900" departPos="free" departSpeed="speedLimit" begin="900" from="63[0]" to="4[1][1][1]" end="1200" vehsPerHour="540.0"/>
	<flow id="43_to_70_at_900" departPos="free" departSpeed="speedLimit" begin="900" from="43" to="70" end="1200" vehsPerHour="540.0"/>
	<flow id="12_to_10_at_900" departPos="free" departSpeed="speedLimit" begin="900" from="12" to="10" end="1200" vehsPerHour="198.0"/>
	<flow id="54_to_2[1][1][1]b_at_900" departPos="free" departSpeed="speedLimit" begin="900" from="54" to="2[1][1][1]b" end="1200" vehsPerHour="198.0"/>
	<flow id="43_to_21_at_900" departPos="free" departSpeed="speedLimit" begin="900" from="43" to="21" end="1200" vehsPerHour="198.0"/>
	<flow id="22[0]_to_2[1][1][1]b_at_900" departPos="free" departSpeed="speedLimit" begin="900" from="22[0]" to="2[1][1][1]b" end="1200" vehsPerHour="198.0"/>
	<flow id="3[0]_to_10_at_900" departPos="free" departSpeed="speedLimit" begin="900" from="3[0]" to="10" end="1200" vehsPerHour="198.0"/>
	<flow id="12_to_3[1]b_at_900" departPos="free" departSpeed="speedLimit" begin="900" from="12" to="3[1]b" end="1200" vehsPerHour="118.8"/>
	<flow id="65_to_21_at_900" departPos="free" departSpeed="speedLimit" begin="900" from="65" to="21" end="1200" vehsPerHour="118.8"/>
	<flow id="52_to_44_at_900" departPos="free" departSpeed="speedLimit" begin="900" from="52" to="44" end="1200" vehsPerHour="118.8"/>
	<flow id="6_to_3[1]b_at_1200" departPos="free" departSpeed="speedLimit" begin="1200" from="6" to="3[1]b" end="1500" vehsPerHour="675.0"/>
	<flow id="1[0]_to_40[1]_at_1200" departPos="free" departSpeed="speedLimit" begin="1200" from="1[0]" to="40[1]" end="1500" vehsPerHour="675.0"/>
	<flow id="3[0]_to_3[1]b_at_1200" departPos="free" departSpeed="speedLimit" begin="1200" from="3[0]" to="3[1]b" end="1500" vehsPerHour="675.0"/>
	<flow id="1[0]_to_35[1][1][1][1]_at_1200" departPos="free" departSpeed="speedLimit" begin="1200" from="1[0]" to="35[1][1][1][1]" end="1500" vehsPerHour="405.0"/>
	<flow id="63[0]_to_4[1][1][1]_at_1200" departPos="free" departSpeed="speedLimit" begin="1200" from="63[0]" to="4[1][1][1]" end="1500" vehsPerHour="405.0"/>
	<flow id="43_to_70_at_1200" departPos="free" departSpeed="speedLimit" begin="1200" from="43" to="70" end="1500" vehsPerHour="405.0"/>
	<flow id="12_to_10_at_1200" departPos="free" departSpeed="speedLimit" begin="1200" from="12" to="10" end="1500" vehsPerHour="528.0"/>
	<flow id="54_to_2[1][1][1]b_at_1200" departPos="free" departSpeed="speedLimit" begin="1200" from="54" to="2[1][1][1]b" end="1500" vehsPerHour="528.0"/>
	<flow id="43_to_21_at_1200" departPos="free" departSpeed="speedLimit" begin="1200" from="43" to="21" end="1500" vehsPerHour="528.0"/>
	<flow id="22[0]_to_2[1][1][1]b_at_1200" departPos="free" departSpeed="speedLimit" begin="1200" from="22[0]" to="2[1][1][1]b" end="1500" vehsPerHour="528.0"/>
	<flow id="3[0]_to_10_at_1200" departPos="free" departSpeed="speedLimit" begin="1200" from="3[0]" to="10" end="1500" vehsPerHour="528.0"/>
	<flow id="12_to_3[1]b_at_1200" departPos="free" departSpeed="speedLimit" begin="1200" from="12" to="3[1]b" end="1500" vehsPerHour="316.8"/>
	<flow id="65_to_21_at_1200" departPos="free" departSpeed="speedLimit" begin="1200" from="65" to="21" end="1500" vehsPerHour="316.8"/>
	<flow id="52_to_44_at_1200" departPos="free" departSpeed="speedLimit" begin="1200" from="52" to="44" end="1500" vehsPerHour="316.8"/>
	<flow id="6_to_3[1]b_at_1500" departPos="free" departSpeed="speedLimit" begin="1500" from="6" to="3[1]b" end="1800" vehsPerHour="450.0"/>
	<flow id="1[0]_to_40[1]_at_1500" departPos="free" departSpeed="speedLimit" begin="1500" from="1[0]" to="40[1]" end="1800" vehsPerHour="450.0"/>
	<flow id="3[0]_to_3[1]b_at_1500" departPos="free" departSpeed="speedLimit" begin="1500" from="3[0]" to="3[1]b" end="1800" vehsPerHour="450.0"/>
	<flow id="1[0]_to_35[1][1][1][1]_at_1500" departPos="free" departSpeed="speedLimit" begin="1500" from="1[0]" to="35[1][1][1][1]" end="1800" vehsPerHour="270.0"/>
	<flow id="63[0]_to_4[1][1][1]_at_1500" departPos="free" departSpeed="speedLimit" begin="1500" from="63[0]" to="4[1][1][1]" end="1800" vehsPerHour="270.0"/>
	<flow id="43_to_70_at_1500" departPos="free" departSpeed="speedLimit" begin="1500" from="43" to="70" end="1800" vehsPerHour="270.0"/>
	<flow id="12_to_10_at_1500" departPos="free" departSpeed="speedLimit" begin="1500" from="12" to="10" end="1800" vehsPerHour="594.0"/>
	<flow id="54_to_2[1][1][1]b_at_1500" departPos="free" departSpeed="speedLimit" begin="1500" from="54" to="2[1][1][1]b" end="1800" vehsPerHour="594.0"/>
	<flow id="43_to_21_at_1500" departPos="free" departSpeed="speedLimit" begin="1500" from="43" to="21" end="1800" vehsPerHour="594.0"/>
	<flow id="22[0]_to_2[1][1][1]b_at_1500" departPos="free" departSpeed="speedLimit" begin="1500" from="22[0]" to="2[1][1][1]b" end="1800" vehsPerHour="594.0"/>
	<flow id="3[0]_to_10_at_1500" departPos="free" departSpeed="speedLimit" begin="1500" from="3[0]" to="10" end="1800" vehsPerHour="594.0"/>
	<flow id="12_to_3[1]b_at_1500" departPos="free" departSpeed="speedLimit" begin="1500" from="12" to="3[1]b" end="1800" vehsPerHour="356.4"/>
	<flow id="65_to_21_at_1500" departPos="free" departSpeed="speedLimit" begin="1500" from="65" to="21" end="1800" vehsPerHour="356.4"/>
	<flow id="52_to_44_at_1500" departPos="free" departSpeed="speedLimit" begin="1500" from="52" to="44" end="1800" vehsPerHour="356.4"/>
	<flow id="6_to_35[1][1][1][1]_at_1800" departPos="free" departSpeed="speedLimit" begin="1800" from="6" to="35[1][1][1][1]" end="2100" vehsPerHour="225.0"/>
	<flow id="1[0]_to_40[1]_at_1800" departPos="free" departSpeed="speedLimit" begin="1800" from="1[0]" to="40[1]" end="2100" vehsPerHour="225.0"/>
	<flow id="3[0]_to_3[1]b_at_1800" departPos="free" departSpeed="speedLimit" begin="1800" from="3[0]" to="3[1]b" end="2100" vehsPerHour="225.0"/>
	<flow id="1[0]_to_35[1][1][1][1]_at_1800" departPos="free" departSpeed="speedLimit" begin="1800" from="1[0]" to="35[1][1][1][1]" end="2100" vehsPerHour="135.0"/>
	<flow id="63[0]_to_4[1][1][1]_at_1800" departPos="free" departSpeed="speedLimit" begin="1800" from="63[0]" to="4[1][1][1]" end="2100" vehsPerHour="135.0"/>
	<flow id="43_to_70_at_1800" departPos="free" departSpeed="speedLimit" begin="1800" from="43" to="70" end="2100" vehsPerHour="135.0"/>
	<flow id="12_to_10_at_1800" departPos="free" departSpeed="speedLimit" begin="1800" from="12" to="10" end="2100" vehsPerHour="660.0"/>
	<flow id="54_to_2[1][1][1]b_at_1800" departPos="free" departSpeed="speedLimit" begin="1800" from="54" to="2[1][1][1]b" end="2100" vehsPerHour="660.0"/>
	<flow id="43_to_21_at_1800" departPos="free" departSpeed="speedLimit" begin="1800" from="43" to="21" end="2100" vehsPerHour="660.0"/>
	<flow id="22[0]_to_2[1][1][1]b_at_1800" departPos="free" departSpeed="speedLimit" begin="1800" from="22[0]" to="2[1][1][1]b" end="2100" vehsPerHour="660.0"/>
	<flow id="3[0]_to_10_at_1800" departPos="free" departSpeed="speedLimit" begin="1800" from="3[0]" to="10" end="2100" vehsPerHour="660.0"/>
	<flow id="12_to_3[1]b_at_1800" departPos="free" departSpeed="speedLimit" begin="1800" from="12" to="3[1]b" end="2100" vehsPerHour="396.0"/>
	<flow id="65_to_21_at_1800" departPos="free" departSpeed="speedLimit" begin="1800" from="65" to="21" end="2100" vehsPerHour="396.0"/>
	<flow id="52_to_44_at_1800" departPos="free" departSpeed="speedLimit" begin="1800" from="52" to="44" end="2100" vehsPerHour="396.0"/>
	<flow id="12_to_10_at_2100" departPos="free" departSpeed="speedLimit" begin="2100" from="12" to="10" end="2400" vehsPerHour="528.0"/>
	<flow id="54_to_2[1][1][1]b_at_2100" departPos="free" departSpeed="speedLimit" begin="2100" from="54" to="2[1][1][1]b" end="2400" vehsPerHour="528.0"/>
	<flow id="43_to_21_at_2100" departPos="free" departSpeed="speedLimit" begin="2100" from="43" to="21" end="2400" vehsPerHour="528.0"/>
	<flow id="22[0]_to_2[1][1][1]b_at_2100" departPos="free" departSpeed="speedLimit" begin="2100" from="22[0]" to="2[1][1][1]b" end="2400" vehsPerHour="528.0"/>
	<flow id="3[0]_to_10_at_2100" departPos="free" departSpeed="speedLimit" begin="2100" from="3[0]" to="10" end="2400" vehsPerHour="528.0"/>
	<flow id="12_to_3[1]b_at_2100" departPos="free" departSpeed="speedLimit" begin="2100" from="12" to="3[1]b" end="2400" vehsPerHour="316.8"/>
	<flow id="65_to_21_at_2100" departPos="free" departSpeed="speedLimit" begin="2100" from="65" to="21" end="2400" vehsPerHour="316.8"/>
	<flow id="52_to_44_at_2100" departPos="free" departSpeed="speedLimit" begin="2100" from="52" to="44" end="2400" vehsPerHour="316.8"/>
	<flow id="12_to_10_at_2400" departPos="free" departSpeed="speedLimit" begin="2400" from="12" to="10" end="2700" vehsPerHour="396.0"/>
	<flow id="54_to_2[1][1][1]b_at_2400" departPos="free" departSpeed="speedLimit" begin="2400" from="54" to="2[1][1][1]b" end="2700" vehsPerHour="396.0"/>
	<flow id="43_to_21_at_2400" departPos="free" departSpeed="speedLimit" begin="2400" from="43" to="21" end="2700" vehsPerHour="396.0"/>
	<flow id="22[0]_to_2[1][1][1]b_at_2400" departPos="free" departSpeed="speedLimit" begin="2400" from="22[0]" to="2[1][1][1]b" end="2700" vehsPerHour="396.0"/>
	<flow id="3[0]_to_10_at_2400" departPos="free" departSpeed="speedLimit" begin="2400" from="3[0]" to="10" end="2700" vehsPerHour="396.0"/>
	<flow id="12_to_3[1]b_at_2400" departPos="free" departSpeed="speedLimit" begin="2400" from="12" to="3[1]b" end="2700" vehsPerHour="237.6"/>
	<flow id="65_to_21_at_2400" departPos="free" departSpeed="speedLimit" begin="2400" from="65" to="21" end="2700" vehsPerHour="237.6"/>
	<flow id="52_to_44_at_2400" departPos="free" departSpeed="speedLimit" begin="2400" from="52" to="44" end="2700" vehsPerHour="237.6"/>
	<flow id="12_to_10_at_2700" departPos="free" departSpeed="speedLimit" begin="2700" from="12" to="10" end="3000" vehsPerHour="132.0"/>
	<flow id="54_to_2[1][1][1]b_at_2700" departPos="free" departSpeed="speedLimit" begin="2700" from="54" to="2[1][1][1]b" end="3000" vehsPerHour="132.0"/>
	<flow id="43_to_21_at_2700" departPos="free" departSpeed="speedLimit" begin="2700" from="43" to="21" end="3000" vehsPerHour="132.0"/>
	<flow id="22[0]_to_2[1][1][1]b_at_2700" departPos="free" departSpeed="speedLimit" begin="2700" from="22[0]" to="2[1][1][1]b" end="3000" vehsPerHour="132.0"/>
	<flow id="3[0]_to_10_at_2700" departPos="free" departSpeed="speedLimit" begin="2700" from="3[0]" to="10" end="3000" vehsPerHour="132.0"/>
	<flow id="12_to_3[1]b_at_2700" departPos="free" departSpeed="speedLimit" begin="2700" from="12" to="3[1]b" end="3000" vehsPerHour="79.2"/>
	<flow id="65_to_21_at_2700" departPos="free" departSpeed="speedLimit" begin="2700" from="65" to="21" end="3000" vehsPerHour="79.2"/>
	<flow id="52_to_44_at_2700" departPos="free" departSpeed="speedLimit" begin="2700" from="52" to="44" end="3000" vehsPerHour="79.2"/>
</routes>
