<additional xmlns:xsi="http://www.w3.org/2001/XMLSchema-instance" xsi:noNamespaceSchemaLocation="http://sumo.dlr.de/xsd/additional_file.xsd">
    <laneAreaDetector file="e2output.xml" freq="1" friendlyPos="x" id="e2det_100_0" lane="100_0" length="50" pos="31.93"/>
    <laneAreaDetector file="e2output.xml" freq="1" friendlyPos="x" id="e2det_100_1" lane="100_1" length="50" pos="31.93"/>
    <laneAreaDetector file="e2output.xml" freq="1" friendlyPos="x" id="e2det_3[0]_0" lane="3[0]_0" length="50" pos="123.6"/>
    <laneAreaDetector file="e2output.xml" freq="1" friendlyPos="x" id="e2det_3[0]_1" lane="3[0]_1" length="50" pos="123.6"/>
    <laneAreaDetector file="e2output.xml" freq="1" friendlyPos="x" id="e2det_4[1][1][0]_0" lane="4[1][1][0]_0" length="50" pos="125.37"/>
    <laneAreaDetector file="e2output.xml" freq="1" friendlyPos="x" id="e2det_4[1][1][0]_1" lane="4[1][1][0]_1" length="50" pos="125.37"/>
    <laneAreaDetector file="e2output.xml" freq="1" friendlyPos="x" id="e2det_7_0" lane="7_0" length="42.42" pos="1.4155343563970746e-15"/>
    <laneAreaDetector file="e2output.xml" freq="1" friendlyPos="x" id="e2det_7_1" lane="7_1" length="42.42" pos="1.4155343563970746e-15"/>
    <laneAreaDetector file="e2output.xml" freq="1" friendlyPos="x" id="e2det_7_2" lane="7_2" length="42.42" pos="1.4155343563970746e-15"/>
    <laneAreaDetector file="e2output.xml" freq="1" friendlyPos="x" id="e2det_8_0" lane="8_0" length="50" pos="295.57"/>
    <laneAreaDetector file="e2output.xml" freq="1" friendlyPos="x" id="e2det_8_1" lane="8_1" length="50" pos="295.57"/>
    <laneAreaDetector file="e2output.xml" freq="1" friendlyPos="x" id="e2det_8_2" lane="8_2" length="50" pos="295.57"/>
    <laneAreaDetector file="e2output.xml" freq="1" friendlyPos="x" id="e2det_8_3" lane="8_3" length="50" pos="295.57"/>
    <laneAreaDetector file="e2output.xml" freq="1" friendlyPos="x" id="e2det_101_0" lane="101_0" length="50" pos="47.74"/>
    <laneAreaDetector file="e2output.xml" freq="1" friendlyPos="x" id="e2det_101_1" lane="101_1" length="50" pos="47.74"/>
    <laneAreaDetector file="e2output.xml" freq="1" friendlyPos="x" id="e2det_35[0]_0" lane="35[0]_0" length="50" pos="154.35"/>
    <laneAreaDetector file="e2output.xml" freq="1" friendlyPos="x" id="e2det_38[1][1]a_0" lane="38[1][1]a_0" length="50" pos="46.65"/>
    <laneAreaDetector file="e2output.xml" freq="1" friendlyPos="x" id="e2det_56[0]_0" lane="56[0]_0" length="50" pos="169.8"/>
    <laneAreaDetector file="e2output.xml" freq="1" friendlyPos="x" id="e2det_56[0]_1" lane="56[0]_1" length="50" pos="169.8"/>
    <laneAreaDetector file="e2output.xml" freq="1" friendlyPos="x" id="e2det_56[1][0]_0" lane="56[1][0]_0" length="50" pos="154.35"/>
    <laneAreaDetector file="e2output.xml" freq="1" friendlyPos="x" id="e2det_56[1][0]_1" lane="56[1][0]_1" length="50" pos="154.35"/>
    <laneAreaDetector file="e2output.xml" freq="1" friendlyPos="x" id="e2det_56[1][0]_2" lane="56[1][0]_2" length="50" pos="154.35"/>
    <laneAreaDetector file="e2output.xml" freq="1" friendlyPos="x" id="e2det_11[0]_0" lane="11[0]_0" length="50" pos="45.73"/>
    <laneAreaDetector file="e2output.xml" freq="1" friendlyPos="x" id="e2det_11[0]_1" lane="11[0]_1" length="50" pos="45.73"/>
    <laneAreaDetector file="e2output.xml" freq="1" friendlyPos="x" id="e2det_11[1][1]_0" lane="11[1][1]_0" length="46.93" pos="1.4155343563970746e-15"/>
    <laneAreaDetector file="e2output.xml" freq="1" friendlyPos="x" id="e2det_11[1][1]_1" lane="11[1][1]_1" length="46.93" pos="1.4155343563970746e-15"/>
    <laneAreaDetector file="e2output.xml" freq="1" friendlyPos="x" id="e2det_17[1]_0" lane="17[1]_0" length="50" pos="141.91"/>
    <laneAreaDetector file="e2output.xml" freq="1" friendlyPos="x" id="e2det_31_0" lane="31_0" length="50" pos="134.48000000000002"/>
    <laneAreaDetector file="e2output.xml" freq="1" friendlyPos="x" id="e2det_56[1][1]_0" lane="56[1][1]_0" length="50" pos="47.74"/>
    <laneAreaDetector file="e2output.xml" freq="1" friendlyPos="x" id="e2det_56[1][1]_1" lane="56[1][1]_1" length="50" pos="47.74"/>
    <laneAreaDetector file="e2output.xml" freq="1" friendlyPos="x" id="e2det_5[1][0]+66_0" lane="5[1][0]+66_0" length="46.93" pos="1.4155343563970746e-15"/>
    <laneAreaDetector file="e2output.xml" freq="1" friendlyPos="x" id="e2det_5[1][0]+66_1" lane="5[1][0]+66_1" length="46.93" pos="1.4155343563970746e-15"/>
    <laneAreaDetector file="e2output.xml" freq="1" friendlyPos="x" id="e2det_5[1][1][1]_0" lane="5[1][1][1]_0" length="50" pos="45.73"/>
    <laneAreaDetector file="e2output.xml" freq="1" friendlyPos="x" id="e2det_5[1][1][1]_1" lane="5[1][1][1]_1" length="50" pos="45.73"/>
    <laneAreaDetector file="e2output.xml" freq="1" friendlyPos="x" id="e2det_5[1][1][1]_2" lane="5[1][1][1]_2" length="50" pos="45.73"/>
    <laneAreaDetector file="e2output.xml" freq="1" friendlyPos="x" id="e2det_65_0" lane="65_0" length="50" pos="212.21"/>
    <laneAreaDetector file="e2output.xml" freq="1" friendlyPos="x" id="e2det_71_0" lane="71_0" length="50" pos="15.050000000000006"/>
    <laneAreaDetector file="e2output.xml" freq="1" friendlyPos="x" id="e2det_9_0" lane="9_0" length="50" pos="295.57"/>
    <laneAreaDetector file="e2output.xml" freq="1" friendlyPos="x" id="e2det_m66b_0" lane="m66b_0" length="9.08" pos="0"/>
    <laneAreaDetector file="e2output.xml" freq="1" friendlyPos="x" id="e2det_m66b_1" lane="m66b_1" length="9.08" pos="0"/>
    <laneAreaDetector file="e2output.xml" freq="1" friendlyPos="x" id="e2det_12_0" lane="12_0" length="50" pos="458.04999999999995"/>
    <laneAreaDetector file="e2output.xml" freq="1" friendlyPos="x" id="e2det_12_1" lane="12_1" length="50" pos="458.04999999999995"/>
    <laneAreaDetector file="e2output.xml" freq="1" friendlyPos="x" id="e2det_12_2" lane="12_2" length="50" pos="458.04999999999995"/>
    <laneAreaDetector file="e2output.xml" freq="1" friendlyPos="x" id="e2det_35[1][0]_0" lane="35[1][0]_0" length="50" pos="169.8"/>
    <laneAreaDetector file="e2output.xml" freq="1" friendlyPos="x" id="e2det_51_0" lane="51_0" length="50" pos="15.850000000000003"/>
    <laneAreaDetector file="e2output.xml" freq="1" friendlyPos="x" id="e2det_51_1" lane="51_1" length="50" pos="15.850000000000003"/>
    <laneAreaDetector file="e2output.xml" freq="1" friendlyPos="x" id="e2det_55_0" lane="55_0" length="50" pos="48.54"/>
    <laneAreaDetector file="e2output.xml" freq="1" friendlyPos="x" id="e2det_55_1" lane="55_1" length="50" pos="48.54"/>
    <laneAreaDetector file="e2output.xml" freq="1" friendlyPos="x" id="e2det_14_0" lane="14_0" length="50" pos="271.65999999999997"/>
    <laneAreaDetector file="e2output.xml" freq="1" friendlyPos="x" id="e2det_16[1]_0" lane="16[1]_0" length="50" pos="175.16"/>
    <laneAreaDetector file="e2output.xml" freq="1" friendlyPos="x" id="e2det_23_0" lane="23_0" length="50" pos="107.98000000000002"/>
    <laneAreaDetector file="e2output.xml" freq="1" friendlyPos="x" id="e2det_23_1" lane="23_1" length="50" pos="107.98000000000002"/>
    <laneAreaDetector file="e2output.xml" freq="1" friendlyPos="x" id="e2det_26.-170_0" lane="26.-170_0" length="50" pos="111.07"/>
    <laneAreaDetector file="e2output.xml" freq="1" friendlyPos="x" id="e2det_1[0]_0" lane="1[0]_0" length="50" pos="356.26"/>
    <laneAreaDetector file="e2output.xml" freq="1" friendlyPos="x" id="e2det_1[0]_1" lane="1[0]_1" length="50" pos="356.26"/>
    <laneAreaDetector file="e2output.xml" freq="1" friendlyPos="x" id="e2det_1[0]_2" lane="1[0]_2" length="50" pos="356.26"/>
    <laneAreaDetector file="e2output.xml" freq="1" friendlyPos="x" id="e2det_20+19a_0" lane="20+19a_0" length="36.33" pos="1.4155343563970746e-15"/>
    <laneAreaDetector file="e2output.xml" freq="1" friendlyPos="x" id="e2det_20+19a_1" lane="20+19a_1" length="36.33" pos="1.4155343563970746e-15"/>
    <laneAreaDetector file="e2output.xml" freq="1" friendlyPos="x" id="e2det_20+19b_0" lane="20+19b_0" length="50" pos="4.6999999999999975"/>
    <laneAreaDetector file="e2output.xml" freq="1" friendlyPos="x" id="e2det_22[1]_0" lane="22[1]_0" length="50" pos="5.089999999999998"/>
    <laneAreaDetector file="e2output.xml" freq="1" friendlyPos="x" id="e2det_22[1]_1" lane="22[1]_1" length="50" pos="5.089999999999998"/>
    <laneAreaDetector file="e2output.xml" freq="1" friendlyPos="x" id="e2det_2[1][1][0]_0" lane="2[1][1][0]_0" length="2.44" pos="8.326672684688674e-17"/>
    <laneAreaDetector file="e2output.xml" freq="1" friendlyPos="x" id="e2det_2[1][1][0]_1" lane="2[1][1][0]_1" length="2.44" pos="8.326672684688674e-17"/>
    <laneAreaDetector file="e2output.xml" freq="1" friendlyPos="x" id="e2det_2[1][1][0]_2" lane="2[1][1][0]_2" length="2.44" pos="8.326672684688674e-17"/>
    <laneAreaDetector file="e2output.xml" freq="1" friendlyPos="x" id="e2det_2[1][1][1]_0" lane="2[1][1][1]_0" length="15.52" pos="0"/>
    <laneAreaDetector file="e2output.xml" freq="1" friendlyPos="x" id="e2det_2[1][1][1]_1" lane="2[1][1][1]_1" length="15.52" pos="0"/>
    <laneAreaDetector file="e2output.xml" freq="1" friendlyPos="x" id="e2det_2[1][1][1]_2" lane="2[1][1][1]_2" length="15.52" pos="0"/>
    <laneAreaDetector file="e2output.xml" freq="1" friendlyPos="x" id="e2det_1[1]_0" lane="1[1]_0" length="50" pos="437.12"/>
    <laneAreaDetector file="e2output.xml" freq="1" friendlyPos="x" id="e2det_1[1]_1" lane="1[1]_1" length="50" pos="437.12"/>
    <laneAreaDetector file="e2output.xml" freq="1" friendlyPos="x" id="e2det_1[1]_2" lane="1[1]_2" length="50" pos="437.12"/>
    <laneAreaDetector file="e2output.xml" freq="1" friendlyPos="x" id="e2det_36_0" lane="36_0" length="50" pos="139.46"/>
    <laneAreaDetector file="e2output.xml" freq="1" friendlyPos="x" id="e2det_38[0]a_0" lane="38[0]a_0" length="50" pos="20.68"/>
    <laneAreaDetector file="e2output.xml" freq="1" friendlyPos="x" id="e2det_39[1][1][0]_0" lane="39[1][1][0]_0" length="50" pos="151.39000000000001"/>
    <laneAreaDetector file="e2output.xml" freq="1" friendlyPos="x" id="e2det_42_0" lane="42_0" length="47.74" pos="1.4155343563970746e-15"/>
    <laneAreaDetector file="e2output.xml" freq="1" friendlyPos="x" id="e2det_42_1" lane="42_1" length="47.74" pos="1.4155343563970746e-15"/>
    <laneAreaDetector file="e2output.xml" freq="1" friendlyPos="x" id="e2det_42_2" lane="42_2" length="47.74" pos="1.4155343563970746e-15"/>
    <laneAreaDetector file="e2output.xml" freq="1" friendlyPos="x" id="e2det_45_0" lane="45_0" length="50" pos="14.199999999999998"/>
    <laneAreaDetector file="e2output.xml" freq="1" friendlyPos="x" id="e2det_45_1" lane="45_1" length="50" pos="14.199999999999998"/>
    <laneAreaDetector file="e2output.xml" freq="1" friendlyPos="x" id="e2det_45_2" lane="45_2" length="50" pos="14.199999999999998"/>
    <laneAreaDetector file="e2output.xml" freq="1" friendlyPos="x" id="e2det_47_0" lane="47_0" length="50" pos="164.94"/>
    <laneAreaDetector file="e2output.xml" freq="1" friendlyPos="x" id="e2det_81_0" lane="81_0" length="50" pos="2.4900000000000033"/>
    <laneAreaDetector file="e2output.xml" freq="1" friendlyPos="x" id="e2det_81_1" lane="81_1" length="50" pos="2.4900000000000033"/>
    <laneAreaDetector file="e2output.xml" freq="1" friendlyPos="x" id="e2det_81_2" lane="81_2" length="50" pos="2.4900000000000033"/>
    <laneAreaDetector file="e2output.xml" freq="1" friendlyPos="x" id="e2det_40[0]_0" lane="40[0]_0" length="50" pos="159.67000000000002"/>
    <laneAreaDetector file="e2output.xml" freq="1" friendlyPos="x" id="e2det_40[0]_1" lane="40[0]_1" length="50" pos="159.67000000000002"/>
    <laneAreaDetector file="e2output.xml" freq="1" friendlyPos="x" id="e2det_48_0" lane="48_0" length="50" pos="58.76"/>
    <laneAreaDetector file="e2output.xml" freq="1" friendlyPos="x" id="e2det_48_1" lane="48_1" length="50" pos="58.76"/>
    <laneAreaDetector file="e2output.xml" freq="1" friendlyPos="x" id="e2det_48_2" lane="48_2" length="50" pos="58.76"/>
</additional>
