<?xml version="1.0" encoding="UTF-8"?>

<!-- generated on 2025-02-27 13:18:26 by Eclipse SUMO netgenerate Version 1.20.0
<configuration xmlns:xsi="http://www.w3.org/2001/XMLSchema-instance" xsi:noNamespaceSchemaLocation="http://sumo.dlr.de/xsd/netgenerateConfiguration.xsd">

    <random_network>
        <rand value="true"/>
        <rand.iterations value="200"/>
        <rand.max-distance value="500"/>
        <rand.min-distance value="200"/>
        <rand.min-angle value="90"/>
        <rand.connectivity value="0.75"/>
        <rand.grid value="true"/>
    </random_network>

    <output>
        <output-file value="random_single.net.xml"/>
    </output>

    <processing>
        <fringe.guess value="true"/>
    </processing>

    <building_defaults>
        <default.lanenumber value="2"/>
    </building_defaults>

    <tls_building>
        <tls.guess value="True"/>
    </tls_building>

</configuration>
-->

<net version="1.20" junctionCornerDetail="5" limitTurnSpeed="5.50" xmlns:xsi="http://www.w3.org/2001/XMLSchema-instance" xsi:noNamespaceSchemaLocation="http://sumo.dlr.de/xsd/net_file.xsd">

    <location netOffset="2400.00,2800.00" convBoundary="0.00,0.00,4600.00,4800.00" origBoundary="-2400.00,-2800.00,2200.00,2000.00" projParameter="!"/>

    <edge id=":1_0" function="internal">
        <lane id=":1_0_0" index="0" speed="6.51" length="9.03" shape="2395.20,2810.40 2394.85,2807.95 2393.80,2806.20 2392.05,2805.15 2389.60,2804.80"/>
    </edge>
    <edge id=":1_1" function="internal">
        <lane id=":1_1_0" index="0" speed="13.89" length="20.80" shape="2395.20,2810.40 2395.20,2789.60"/>
        <lane id=":1_1_1" index="1" speed="13.89" length="20.80" shape="2398.40,2810.40 2398.40,2789.60"/>
    </edge>
    <edge id=":1_3" function="internal">
        <lane id=":1_3_0" index="0" speed="9.26" length="5.01" shape="2398.40,2810.40 2399.11,2805.44"/>
    </edge>
    <edge id=":1_4" function="internal">
        <lane id=":1_4_0" index="0" speed="3.65" length="1.44" shape="2398.40,2810.40 2399.20,2809.20"/>
    </edge>
    <edge id=":1_20" function="internal">
        <lane id=":1_20_0" index="0" speed="9.26" length="14.34" shape="2399.11,2805.44 2399.15,2805.15 2401.40,2801.40 2405.15,2799.15 2410.40,2798.40"/>
    </edge>
    <edge id=":1_21" function="internal">
        <lane id=":1_21_0" index="0" speed="3.65" length="3.23" shape="2399.20,2809.20 2400.00,2808.80 2400.80,2809.20 2401.60,2810.40"/>
    </edge>
    <edge id=":1_5" function="internal">
        <lane id=":1_5_0" index="0" speed="6.51" length="9.03" shape="2410.40,2804.80 2407.95,2805.15 2406.20,2806.20 2405.15,2807.95 2404.80,2810.40"/>
    </edge>
    <edge id=":1_6" function="internal">
        <lane id=":1_6_0" index="0" speed="13.89" length="20.80" shape="2410.40,2804.80 2389.60,2804.80"/>
        <lane id=":1_6_1" index="1" speed="13.89" length="20.80" shape="2410.40,2801.60 2389.60,2801.60"/>
    </edge>
    <edge id=":1_8" function="internal">
        <lane id=":1_8_0" index="0" speed="9.26" length="5.01" shape="2410.40,2801.60 2405.44,2800.89"/>
    </edge>
    <edge id=":1_9" function="internal">
        <lane id=":1_9_0" index="0" speed="3.65" length="1.44" shape="2410.40,2801.60 2409.20,2800.80"/>
    </edge>
    <edge id=":1_22" function="internal">
        <lane id=":1_22_0" index="0" speed="9.26" length="14.34" shape="2405.44,2800.89 2405.15,2800.85 2401.40,2798.60 2399.15,2794.85 2398.40,2789.60"/>
    </edge>
    <edge id=":1_23" function="internal">
        <lane id=":1_23_0" index="0" speed="3.65" length="3.23" shape="2409.20,2800.80 2408.80,2800.00 2409.20,2799.20 2410.40,2798.40"/>
    </edge>
    <edge id=":1_10" function="internal">
        <lane id=":1_10_0" index="0" speed="6.51" length="9.03" shape="2404.80,2789.60 2405.15,2792.05 2406.20,2793.80 2407.95,2794.85 2410.40,2795.20"/>
    </edge>
    <edge id=":1_11" function="internal">
        <lane id=":1_11_0" index="0" speed="13.89" length="20.80" shape="2404.80,2789.60 2404.80,2810.40"/>
        <lane id=":1_11_1" index="1" speed="13.89" length="20.80" shape="2401.60,2789.60 2401.60,2810.40"/>
    </edge>
    <edge id=":1_13" function="internal">
        <lane id=":1_13_0" index="0" speed="9.26" length="5.01" shape="2401.60,2789.60 2400.89,2794.56"/>
    </edge>
    <edge id=":1_14" function="internal">
        <lane id=":1_14_0" index="0" speed="3.65" length="1.44" shape="2401.60,2789.60 2400.80,2790.80"/>
    </edge>
    <edge id=":1_24" function="internal">
        <lane id=":1_24_0" index="0" speed="9.26" length="14.34" shape="2400.89,2794.56 2400.85,2794.85 2398.60,2798.60 2394.85,2800.85 2389.60,2801.60"/>
    </edge>
    <edge id=":1_25" function="internal">
        <lane id=":1_25_0" index="0" speed="3.65" length="3.23" shape="2400.80,2790.80 2400.00,2791.20 2399.20,2790.80 2398.40,2789.60"/>
    </edge>
    <edge id=":1_15" function="internal">
        <lane id=":1_15_0" index="0" speed="6.51" length="9.03" shape="2389.60,2795.20 2392.05,2794.85 2393.80,2793.80 2394.85,2792.05 2395.20,2789.60"/>
    </edge>
    <edge id=":1_16" function="internal">
        <lane id=":1_16_0" index="0" speed="13.89" length="20.80" shape="2389.60,2795.20 2410.40,2795.20"/>
        <lane id=":1_16_1" index="1" speed="13.89" length="20.80" shape="2389.60,2798.40 2410.40,2798.40"/>
    </edge>
    <edge id=":1_18" function="internal">
        <lane id=":1_18_0" index="0" speed="9.26" length="5.01" shape="2389.60,2798.40 2394.56,2799.11"/>
    </edge>
    <edge id=":1_19" function="internal">
        <lane id=":1_19_0" index="0" speed="3.65" length="1.44" shape="2389.60,2798.40 2390.80,2799.20"/>
    </edge>
    <edge id=":1_26" function="internal">
        <lane id=":1_26_0" index="0" speed="9.26" length="14.34" shape="2394.56,2799.11 2394.85,2799.15 2398.60,2801.40 2400.85,2805.15 2401.60,2810.40"/>
    </edge>
    <edge id=":1_27" function="internal">
        <lane id=":1_27_0" index="0" speed="3.65" length="3.23" shape="2390.80,2799.20 2391.20,2800.00 2390.80,2800.80 2389.60,2801.60"/>
    </edge>
    <edge id=":10_0" function="internal">
        <lane id=":10_0_0" index="0" speed="13.89" length="20.80" shape="2195.20,2810.40 2195.20,2789.60"/>
        <lane id=":10_0_1" index="1" speed="13.89" length="20.80" shape="2198.40,2810.40 2198.40,2789.60"/>
    </edge>
    <edge id=":10_2" function="internal">
        <lane id=":10_2_0" index="0" speed="9.26" length="5.01" shape="2198.40,2810.40 2199.11,2805.44"/>
    </edge>
    <edge id=":10_3" function="internal">
        <lane id=":10_3_0" index="0" speed="3.65" length="1.44" shape="2198.40,2810.40 2199.20,2809.20"/>
    </edge>
    <edge id=":10_12" function="internal">
        <lane id=":10_12_0" index="0" speed="9.26" length="14.34" shape="2199.11,2805.44 2199.15,2805.15 2201.40,2801.40 2205.15,2799.15 2210.40,2798.40"/>
    </edge>
    <edge id=":10_13" function="internal">
        <lane id=":10_13_0" index="0" speed="3.65" length="3.23" shape="2199.20,2809.20 2200.00,2808.80 2200.80,2809.20 2201.60,2810.40"/>
    </edge>
    <edge id=":10_4" function="internal">
        <lane id=":10_4_0" index="0" speed="6.51" length="9.03" shape="2210.40,2804.80 2207.95,2805.15 2206.20,2806.20 2205.15,2807.95 2204.80,2810.40"/>
        <lane id=":10_4_1" index="1" speed="8.00" length="14.19" shape="2210.40,2801.60 2206.55,2802.15 2203.80,2803.80 2202.15,2806.55 2201.60,2810.40"/>
    </edge>
    <edge id=":10_6" function="internal">
        <lane id=":10_6_0" index="0" speed="9.26" length="19.35" shape="2210.40,2801.60 2205.15,2800.85 2201.40,2798.60 2199.15,2794.85 2198.40,2789.60"/>
    </edge>
    <edge id=":10_7" function="internal">
        <lane id=":10_7_0" index="0" speed="3.65" length="2.34" shape="2210.40,2801.60 2209.20,2800.80 2208.80,2800.00"/>
    </edge>
    <edge id=":10_14" function="internal">
        <lane id=":10_14_0" index="0" speed="3.65" length="2.34" shape="2208.80,2800.00 2209.20,2799.20 2210.40,2798.40"/>
    </edge>
    <edge id=":10_8" function="internal">
        <lane id=":10_8_0" index="0" speed="6.51" length="9.03" shape="2204.80,2789.60 2205.15,2792.05 2206.20,2793.80 2207.95,2794.85 2210.40,2795.20"/>
    </edge>
    <edge id=":10_9" function="internal">
        <lane id=":10_9_0" index="0" speed="13.89" length="20.80" shape="2204.80,2789.60 2204.80,2810.40"/>
        <lane id=":10_9_1" index="1" speed="13.89" length="20.80" shape="2201.60,2789.60 2201.60,2810.40"/>
    </edge>
    <edge id=":10_11" function="internal">
        <lane id=":10_11_0" index="0" speed="3.65" length="1.44" shape="2201.60,2789.60 2200.80,2790.80"/>
    </edge>
    <edge id=":10_15" function="internal">
        <lane id=":10_15_0" index="0" speed="3.65" length="3.23" shape="2200.80,2790.80 2200.00,2791.20 2199.20,2790.80 2198.40,2789.60"/>
    </edge>
    <edge id=":1061_0" function="internal">
        <lane id=":1061_0_0" index="0" speed="13.89" length="0.10" shape="2995.20,2600.00 2995.20,2600.00"/>
        <lane id=":1061_0_1" index="1" speed="13.89" length="0.10" shape="2998.40,2600.00 2998.40,2600.00"/>
    </edge>
    <edge id=":1061_2" function="internal">
        <lane id=":1061_2_0" index="0" speed="13.89" length="0.10" shape="3004.80,2600.00 3004.80,2600.00"/>
        <lane id=":1061_2_1" index="1" speed="13.89" length="0.10" shape="3001.60,2600.00 3001.60,2600.00"/>
    </edge>
    <edge id=":1068_0" function="internal">
        <lane id=":1068_0_0" index="0" speed="8.96" length="18.06" shape="1806.40,4004.80 1801.50,4004.10 1798.00,4002.00 1795.90,3998.50 1795.20,3993.60"/>
        <lane id=":1068_0_1" index="1" speed="7.66" length="12.90" shape="1806.40,4001.60 1802.90,4001.10 1800.40,3999.60 1798.90,3997.10 1798.40,3993.60"/>
    </edge>
    <edge id=":1068_2" function="internal">
        <lane id=":1068_2_0" index="0" speed="3.90" length="2.58" shape="1804.80,3993.60 1804.90,3994.30 1805.20,3994.80 1805.70,3995.10 1806.40,3995.20"/>
        <lane id=":1068_2_1" index="1" speed="6.08" length="7.74" shape="1801.60,3993.60 1801.90,3995.70 1802.80,3997.20 1804.30,3998.10 1806.40,3998.40"/>
    </edge>
    <edge id=":1071_0" function="internal">
        <lane id=":1071_0_0" index="0" speed="8.96" length="18.06" shape="1795.20,2806.40 1795.90,2801.50 1798.00,2798.00 1801.50,2795.90 1806.40,2795.20"/>
        <lane id=":1071_0_1" index="1" speed="7.66" length="12.90" shape="1798.40,2806.40 1798.90,2802.90 1800.40,2800.40 1802.90,2798.90 1806.40,2798.40"/>
    </edge>
    <edge id=":1071_2" function="internal">
        <lane id=":1071_2_0" index="0" speed="3.90" length="2.58" shape="1806.40,2804.80 1805.70,2804.90 1805.20,2805.20 1804.90,2805.70 1804.80,2806.40"/>
        <lane id=":1071_2_1" index="1" speed="6.08" length="7.74" shape="1806.40,2801.60 1804.30,2801.90 1802.80,2802.80 1801.90,2804.30 1801.60,2806.40"/>
    </edge>
    <edge id=":1084_0" function="internal">
        <lane id=":1084_0_0" index="0" speed="6.51" length="9.03" shape="1995.20,1410.40 1994.85,1407.95 1993.80,1406.20 1992.05,1405.15 1989.60,1404.80"/>
    </edge>
    <edge id=":1084_1" function="internal">
        <lane id=":1084_1_0" index="0" speed="13.89" length="20.80" shape="1995.20,1410.40 1995.20,1389.60"/>
        <lane id=":1084_1_1" index="1" speed="13.89" length="20.80" shape="1998.40,1410.40 1998.40,1389.60"/>
    </edge>
    <edge id=":1084_3" function="internal">
        <lane id=":1084_3_0" index="0" speed="3.65" length="1.44" shape="1998.40,1410.40 1999.20,1409.20"/>
    </edge>
    <edge id=":1084_12" function="internal">
        <lane id=":1084_12_0" index="0" speed="3.65" length="3.23" shape="1999.20,1409.20 2000.00,1408.80 2000.80,1409.20 2001.60,1410.40"/>
    </edge>
    <edge id=":1084_4" function="internal">
        <lane id=":1084_4_0" index="0" speed="13.89" length="20.80" shape="2004.80,1389.60 2004.80,1410.40"/>
        <lane id=":1084_4_1" index="1" speed="13.89" length="20.80" shape="2001.60,1389.60 2001.60,1410.40"/>
    </edge>
    <edge id=":1084_6" function="internal">
        <lane id=":1084_6_0" index="0" speed="9.26" length="5.01" shape="2001.60,1389.60 2000.89,1394.56"/>
    </edge>
    <edge id=":1084_7" function="internal">
        <lane id=":1084_7_0" index="0" speed="3.65" length="1.44" shape="2001.60,1389.60 2000.80,1390.80"/>
    </edge>
    <edge id=":1084_13" function="internal">
        <lane id=":1084_13_0" index="0" speed="9.26" length="14.34" shape="2000.89,1394.56 2000.85,1394.85 1998.60,1398.60 1994.85,1400.85 1989.60,1401.60"/>
    </edge>
    <edge id=":1084_14" function="internal">
        <lane id=":1084_14_0" index="0" speed="3.65" length="3.23" shape="2000.80,1390.80 2000.00,1391.20 1999.20,1390.80 1998.40,1389.60"/>
    </edge>
    <edge id=":1084_8" function="internal">
        <lane id=":1084_8_0" index="0" speed="6.51" length="9.03" shape="1989.60,1395.20 1992.05,1394.85 1993.80,1393.80 1994.85,1392.05 1995.20,1389.60"/>
        <lane id=":1084_8_1" index="1" speed="8.00" length="14.19" shape="1989.60,1398.40 1993.45,1397.85 1996.20,1396.20 1997.85,1393.45 1998.40,1389.60"/>
    </edge>
    <edge id=":1084_10" function="internal">
        <lane id=":1084_10_0" index="0" speed="9.26" length="19.35" shape="1989.60,1398.40 1994.85,1399.15 1998.60,1401.40 2000.85,1405.15 2001.60,1410.40"/>
    </edge>
    <edge id=":1084_11" function="internal">
        <lane id=":1084_11_0" index="0" speed="3.65" length="2.34" shape="1989.60,1398.40 1990.80,1399.20 1991.20,1400.00"/>
    </edge>
    <edge id=":1084_15" function="internal">
        <lane id=":1084_15_0" index="0" speed="3.65" length="2.34" shape="1991.20,1400.00 1990.80,1400.80 1989.60,1401.60"/>
    </edge>
    <edge id=":1088_0" function="internal">
        <lane id=":1088_0_0" index="0" speed="13.89" length="20.80" shape="810.40,1804.80 789.60,1804.80"/>
        <lane id=":1088_0_1" index="1" speed="13.89" length="20.80" shape="810.40,1801.60 789.60,1801.60"/>
    </edge>
    <edge id=":1088_2" function="internal">
        <lane id=":1088_2_0" index="0" speed="9.26" length="5.01" shape="810.40,1801.60 805.44,1800.89"/>
    </edge>
    <edge id=":1088_3" function="internal">
        <lane id=":1088_3_0" index="0" speed="3.65" length="1.44" shape="810.40,1801.60 809.20,1800.80"/>
    </edge>
    <edge id=":1088_12" function="internal">
        <lane id=":1088_12_0" index="0" speed="9.26" length="14.34" shape="805.44,1800.89 805.15,1800.85 801.40,1798.60 799.15,1794.85 798.40,1789.60"/>
    </edge>
    <edge id=":1088_13" function="internal">
        <lane id=":1088_13_0" index="0" speed="3.65" length="3.23" shape="809.20,1800.80 808.80,1800.00 809.20,1799.20 810.40,1798.40"/>
    </edge>
    <edge id=":1088_4" function="internal">
        <lane id=":1088_4_0" index="0" speed="6.51" length="9.03" shape="804.80,1789.60 805.15,1792.05 806.20,1793.80 807.95,1794.85 810.40,1795.20"/>
        <lane id=":1088_4_1" index="1" speed="8.00" length="14.19" shape="801.60,1789.60 802.15,1793.45 803.80,1796.20 806.55,1797.85 810.40,1798.40"/>
    </edge>
    <edge id=":1088_6" function="internal">
        <lane id=":1088_6_0" index="0" speed="9.26" length="19.35" shape="801.60,1789.60 800.85,1794.85 798.60,1798.60 794.85,1800.85 789.60,1801.60"/>
    </edge>
    <edge id=":1088_7" function="internal">
        <lane id=":1088_7_0" index="0" speed="3.65" length="2.34" shape="801.60,1789.60 800.80,1790.80 800.00,1791.20"/>
    </edge>
    <edge id=":1088_14" function="internal">
        <lane id=":1088_14_0" index="0" speed="3.65" length="2.34" shape="800.00,1791.20 799.20,1790.80 798.40,1789.60"/>
    </edge>
    <edge id=":1088_8" function="internal">
        <lane id=":1088_8_0" index="0" speed="6.51" length="9.03" shape="789.60,1795.20 792.05,1794.85 793.80,1793.80 794.85,1792.05 795.20,1789.60"/>
    </edge>
    <edge id=":1088_9" function="internal">
        <lane id=":1088_9_0" index="0" speed="13.89" length="20.80" shape="789.60,1795.20 810.40,1795.20"/>
        <lane id=":1088_9_1" index="1" speed="13.89" length="20.80" shape="789.60,1798.40 810.40,1798.40"/>
    </edge>
    <edge id=":1088_11" function="internal">
        <lane id=":1088_11_0" index="0" speed="3.65" length="1.44" shape="789.60,1798.40 790.80,1799.20"/>
    </edge>
    <edge id=":1088_15" function="internal">
        <lane id=":1088_15_0" index="0" speed="3.65" length="3.23" shape="790.80,1799.20 791.20,1800.00 790.80,1800.80 789.60,1801.60"/>
    </edge>
    <edge id=":1101_0" function="internal">
        <lane id=":1101_0_0" index="0" speed="8.96" length="18.06" shape="1804.80,2593.60 1804.10,2598.50 1802.00,2602.00 1798.50,2604.10 1793.60,2604.80"/>
        <lane id=":1101_0_1" index="1" speed="7.66" length="12.90" shape="1801.60,2593.60 1801.10,2597.10 1799.60,2599.60 1797.10,2601.10 1793.60,2601.60"/>
    </edge>
    <edge id=":1101_2" function="internal">
        <lane id=":1101_2_0" index="0" speed="3.90" length="2.58" shape="1793.60,2595.20 1794.30,2595.10 1794.80,2594.80 1795.10,2594.30 1795.20,2593.60"/>
        <lane id=":1101_2_1" index="1" speed="6.08" length="7.74" shape="1793.60,2598.40 1795.70,2598.10 1797.20,2597.20 1798.10,2595.70 1798.40,2593.60"/>
    </edge>
    <edge id=":1103_0" function="internal">
        <lane id=":1103_0_0" index="0" speed="8.96" length="18.06" shape="1006.40,2804.80 1001.50,2804.10 998.00,2802.00 995.90,2798.50 995.20,2793.60"/>
        <lane id=":1103_0_1" index="1" speed="7.66" length="12.90" shape="1006.40,2801.60 1002.90,2801.10 1000.40,2799.60 998.90,2797.10 998.40,2793.60"/>
    </edge>
    <edge id=":1103_2" function="internal">
        <lane id=":1103_2_0" index="0" speed="3.90" length="2.58" shape="1004.80,2793.60 1004.90,2794.30 1005.20,2794.80 1005.70,2795.10 1006.40,2795.20"/>
        <lane id=":1103_2_1" index="1" speed="6.08" length="7.74" shape="1001.60,2793.60 1001.90,2795.70 1002.80,2797.20 1004.30,2798.10 1006.40,2798.40"/>
    </edge>
    <edge id=":1107_0" function="internal">
        <lane id=":1107_0_0" index="0" speed="6.51" length="9.03" shape="795.20,2410.40 794.85,2407.95 793.80,2406.20 792.05,2405.15 789.60,2404.80"/>
    </edge>
    <edge id=":1107_1" function="internal">
        <lane id=":1107_1_0" index="0" speed="13.89" length="20.80" shape="795.20,2410.40 795.20,2389.60"/>
        <lane id=":1107_1_1" index="1" speed="13.89" length="20.80" shape="798.40,2410.40 798.40,2389.60"/>
    </edge>
    <edge id=":1107_3" function="internal">
        <lane id=":1107_3_0" index="0" speed="9.26" length="5.01" shape="798.40,2410.40 799.11,2405.44"/>
    </edge>
    <edge id=":1107_4" function="internal">
        <lane id=":1107_4_0" index="0" speed="3.65" length="1.44" shape="798.40,2410.40 799.20,2409.20"/>
    </edge>
    <edge id=":1107_20" function="internal">
        <lane id=":1107_20_0" index="0" speed="9.26" length="14.34" shape="799.11,2405.44 799.15,2405.15 801.40,2401.40 805.15,2399.15 810.40,2398.40"/>
    </edge>
    <edge id=":1107_21" function="internal">
        <lane id=":1107_21_0" index="0" speed="3.65" length="3.23" shape="799.20,2409.20 800.00,2408.80 800.80,2409.20 801.60,2410.40"/>
    </edge>
    <edge id=":1107_5" function="internal">
        <lane id=":1107_5_0" index="0" speed="6.51" length="9.03" shape="810.40,2404.80 807.95,2405.15 806.20,2406.20 805.15,2407.95 804.80,2410.40"/>
    </edge>
    <edge id=":1107_6" function="internal">
        <lane id=":1107_6_0" index="0" speed="13.89" length="20.80" shape="810.40,2404.80 789.60,2404.80"/>
        <lane id=":1107_6_1" index="1" speed="13.89" length="20.80" shape="810.40,2401.60 789.60,2401.60"/>
    </edge>
    <edge id=":1107_8" function="internal">
        <lane id=":1107_8_0" index="0" speed="9.26" length="5.01" shape="810.40,2401.60 805.44,2400.89"/>
    </edge>
    <edge id=":1107_9" function="internal">
        <lane id=":1107_9_0" index="0" speed="3.65" length="1.44" shape="810.40,2401.60 809.20,2400.80"/>
    </edge>
    <edge id=":1107_22" function="internal">
        <lane id=":1107_22_0" index="0" speed="9.26" length="14.34" shape="805.44,2400.89 805.15,2400.85 801.40,2398.60 799.15,2394.85 798.40,2389.60"/>
    </edge>
    <edge id=":1107_23" function="internal">
        <lane id=":1107_23_0" index="0" speed="3.65" length="3.23" shape="809.20,2400.80 808.80,2400.00 809.20,2399.20 810.40,2398.40"/>
    </edge>
    <edge id=":1107_10" function="internal">
        <lane id=":1107_10_0" index="0" speed="6.51" length="9.03" shape="804.80,2389.60 805.15,2392.05 806.20,2393.80 807.95,2394.85 810.40,2395.20"/>
    </edge>
    <edge id=":1107_11" function="internal">
        <lane id=":1107_11_0" index="0" speed="13.89" length="20.80" shape="804.80,2389.60 804.80,2410.40"/>
        <lane id=":1107_11_1" index="1" speed="13.89" length="20.80" shape="801.60,2389.60 801.60,2410.40"/>
    </edge>
    <edge id=":1107_13" function="internal">
        <lane id=":1107_13_0" index="0" speed="9.26" length="5.01" shape="801.60,2389.60 800.89,2394.56"/>
    </edge>
    <edge id=":1107_14" function="internal">
        <lane id=":1107_14_0" index="0" speed="3.65" length="1.44" shape="801.60,2389.60 800.80,2390.80"/>
    </edge>
    <edge id=":1107_24" function="internal">
        <lane id=":1107_24_0" index="0" speed="9.26" length="14.34" shape="800.89,2394.56 800.85,2394.85 798.60,2398.60 794.85,2400.85 789.60,2401.60"/>
    </edge>
    <edge id=":1107_25" function="internal">
        <lane id=":1107_25_0" index="0" speed="3.65" length="3.23" shape="800.80,2390.80 800.00,2391.20 799.20,2390.80 798.40,2389.60"/>
    </edge>
    <edge id=":1107_15" function="internal">
        <lane id=":1107_15_0" index="0" speed="6.51" length="9.03" shape="789.60,2395.20 792.05,2394.85 793.80,2393.80 794.85,2392.05 795.20,2389.60"/>
    </edge>
    <edge id=":1107_16" function="internal">
        <lane id=":1107_16_0" index="0" speed="13.89" length="20.80" shape="789.60,2395.20 810.40,2395.20"/>
        <lane id=":1107_16_1" index="1" speed="13.89" length="20.80" shape="789.60,2398.40 810.40,2398.40"/>
    </edge>
    <edge id=":1107_18" function="internal">
        <lane id=":1107_18_0" index="0" speed="9.26" length="5.01" shape="789.60,2398.40 794.56,2399.11"/>
    </edge>
    <edge id=":1107_19" function="internal">
        <lane id=":1107_19_0" index="0" speed="3.65" length="1.44" shape="789.60,2398.40 790.80,2399.20"/>
    </edge>
    <edge id=":1107_26" function="internal">
        <lane id=":1107_26_0" index="0" speed="9.26" length="14.34" shape="794.56,2399.11 794.85,2399.15 798.60,2401.40 800.85,2405.15 801.60,2410.40"/>
    </edge>
    <edge id=":1107_27" function="internal">
        <lane id=":1107_27_0" index="0" speed="3.65" length="3.23" shape="790.80,2399.20 791.20,2400.00 790.80,2400.80 789.60,2401.60"/>
    </edge>
    <edge id=":1221_0" function="internal">
        <lane id=":1221_0_0" index="0" speed="3.65" length="4.67" shape="1800.00,2601.60 1798.80,2600.80 1798.40,2600.00 1798.80,2599.20 1800.00,2598.40"/>
    </edge>
    <edge id=":14_0" function="internal">
        <lane id=":14_0_0" index="0" speed="13.89" length="20.80" shape="2410.40,3204.80 2389.60,3204.80"/>
        <lane id=":14_0_1" index="1" speed="13.89" length="20.80" shape="2410.40,3201.60 2389.60,3201.60"/>
    </edge>
    <edge id=":14_2" function="internal">
        <lane id=":14_2_0" index="0" speed="9.26" length="5.01" shape="2410.40,3201.60 2405.44,3200.89"/>
    </edge>
    <edge id=":14_3" function="internal">
        <lane id=":14_3_0" index="0" speed="3.65" length="1.44" shape="2410.40,3201.60 2409.20,3200.80"/>
    </edge>
    <edge id=":14_12" function="internal">
        <lane id=":14_12_0" index="0" speed="9.26" length="14.34" shape="2405.44,3200.89 2405.15,3200.85 2401.40,3198.60 2399.15,3194.85 2398.40,3189.60"/>
    </edge>
    <edge id=":14_13" function="internal">
        <lane id=":14_13_0" index="0" speed="3.65" length="3.23" shape="2409.20,3200.80 2408.80,3200.00 2409.20,3199.20 2410.40,3198.40"/>
    </edge>
    <edge id=":14_4" function="internal">
        <lane id=":14_4_0" index="0" speed="6.51" length="9.03" shape="2404.80,3189.60 2405.15,3192.05 2406.20,3193.80 2407.95,3194.85 2410.40,3195.20"/>
        <lane id=":14_4_1" index="1" speed="8.00" length="14.19" shape="2401.60,3189.60 2402.15,3193.45 2403.80,3196.20 2406.55,3197.85 2410.40,3198.40"/>
    </edge>
    <edge id=":14_6" function="internal">
        <lane id=":14_6_0" index="0" speed="9.26" length="19.35" shape="2401.60,3189.60 2400.85,3194.85 2398.60,3198.60 2394.85,3200.85 2389.60,3201.60"/>
    </edge>
    <edge id=":14_7" function="internal">
        <lane id=":14_7_0" index="0" speed="3.65" length="2.34" shape="2401.60,3189.60 2400.80,3190.80 2400.00,3191.20"/>
    </edge>
    <edge id=":14_14" function="internal">
        <lane id=":14_14_0" index="0" speed="3.65" length="2.34" shape="2400.00,3191.20 2399.20,3190.80 2398.40,3189.60"/>
    </edge>
    <edge id=":14_8" function="internal">
        <lane id=":14_8_0" index="0" speed="6.51" length="9.03" shape="2389.60,3195.20 2392.05,3194.85 2393.80,3193.80 2394.85,3192.05 2395.20,3189.60"/>
    </edge>
    <edge id=":14_9" function="internal">
        <lane id=":14_9_0" index="0" speed="13.89" length="20.80" shape="2389.60,3195.20 2410.40,3195.20"/>
        <lane id=":14_9_1" index="1" speed="13.89" length="20.80" shape="2389.60,3198.40 2410.40,3198.40"/>
    </edge>
    <edge id=":14_11" function="internal">
        <lane id=":14_11_0" index="0" speed="3.65" length="1.44" shape="2389.60,3198.40 2390.80,3199.20"/>
    </edge>
    <edge id=":14_15" function="internal">
        <lane id=":14_15_0" index="0" speed="3.65" length="3.23" shape="2390.80,3199.20 2391.20,3200.00 2390.80,3200.80 2389.60,3201.60"/>
    </edge>
    <edge id=":1438_0" function="internal">
        <lane id=":1438_0_0" index="0" speed="13.89" length="20.80" shape="1610.40,3004.80 1589.60,3004.80"/>
        <lane id=":1438_0_1" index="1" speed="13.89" length="20.80" shape="1610.40,3001.60 1589.60,3001.60"/>
    </edge>
    <edge id=":1438_2" function="internal">
        <lane id=":1438_2_0" index="0" speed="9.26" length="5.01" shape="1610.40,3001.60 1605.44,3000.89"/>
    </edge>
    <edge id=":1438_3" function="internal">
        <lane id=":1438_3_0" index="0" speed="3.65" length="1.44" shape="1610.40,3001.60 1609.20,3000.80"/>
    </edge>
    <edge id=":1438_12" function="internal">
        <lane id=":1438_12_0" index="0" speed="9.26" length="14.34" shape="1605.44,3000.89 1605.15,3000.85 1601.40,2998.60 1599.15,2994.85 1598.40,2989.60"/>
    </edge>
    <edge id=":1438_13" function="internal">
        <lane id=":1438_13_0" index="0" speed="3.65" length="3.23" shape="1609.20,3000.80 1608.80,3000.00 1609.20,2999.20 1610.40,2998.40"/>
    </edge>
    <edge id=":1438_4" function="internal">
        <lane id=":1438_4_0" index="0" speed="6.51" length="9.03" shape="1604.80,2989.60 1605.15,2992.05 1606.20,2993.80 1607.95,2994.85 1610.40,2995.20"/>
        <lane id=":1438_4_1" index="1" speed="8.00" length="14.19" shape="1601.60,2989.60 1602.15,2993.45 1603.80,2996.20 1606.55,2997.85 1610.40,2998.40"/>
    </edge>
    <edge id=":1438_6" function="internal">
        <lane id=":1438_6_0" index="0" speed="9.26" length="19.35" shape="1601.60,2989.60 1600.85,2994.85 1598.60,2998.60 1594.85,3000.85 1589.60,3001.60"/>
    </edge>
    <edge id=":1438_7" function="internal">
        <lane id=":1438_7_0" index="0" speed="3.65" length="2.34" shape="1601.60,2989.60 1600.80,2990.80 1600.00,2991.20"/>
    </edge>
    <edge id=":1438_14" function="internal">
        <lane id=":1438_14_0" index="0" speed="3.65" length="2.34" shape="1600.00,2991.20 1599.20,2990.80 1598.40,2989.60"/>
    </edge>
    <edge id=":1438_8" function="internal">
        <lane id=":1438_8_0" index="0" speed="6.51" length="9.03" shape="1589.60,2995.20 1592.05,2994.85 1593.80,2993.80 1594.85,2992.05 1595.20,2989.60"/>
    </edge>
    <edge id=":1438_9" function="internal">
        <lane id=":1438_9_0" index="0" speed="13.89" length="20.80" shape="1589.60,2995.20 1610.40,2995.20"/>
        <lane id=":1438_9_1" index="1" speed="13.89" length="20.80" shape="1589.60,2998.40 1610.40,2998.40"/>
    </edge>
    <edge id=":1438_11" function="internal">
        <lane id=":1438_11_0" index="0" speed="3.65" length="1.44" shape="1589.60,2998.40 1590.80,2999.20"/>
    </edge>
    <edge id=":1438_15" function="internal">
        <lane id=":1438_15_0" index="0" speed="3.65" length="3.23" shape="1590.80,2999.20 1591.20,3000.00 1590.80,3000.80 1589.60,3001.60"/>
    </edge>
    <edge id=":1442_0" function="internal">
        <lane id=":1442_0_0" index="0" speed="3.90" length="2.58" shape="1995.20,3006.40 1995.10,3005.70 1994.80,3005.20 1994.30,3004.90 1993.60,3004.80"/>
        <lane id=":1442_0_1" index="1" speed="6.08" length="7.74" shape="1998.40,3006.40 1998.10,3004.30 1997.20,3002.80 1995.70,3001.90 1993.60,3001.60"/>
    </edge>
    <edge id=":1442_2" function="internal">
        <lane id=":1442_2_0" index="0" speed="8.96" length="18.06" shape="1993.60,2995.20 1998.50,2995.90 2002.00,2998.00 2004.10,3001.50 2004.80,3006.40"/>
        <lane id=":1442_2_1" index="1" speed="7.66" length="12.90" shape="1993.60,2998.40 1997.10,2998.90 1999.60,3000.40 2001.10,3002.90 2001.60,3006.40"/>
    </edge>
    <edge id=":1447_0" function="internal">
        <lane id=":1447_0_0" index="0" speed="8.96" length="18.06" shape="2004.80,3193.60 2004.10,3198.50 2002.00,3202.00 1998.50,3204.10 1993.60,3204.80"/>
        <lane id=":1447_0_1" index="1" speed="7.66" length="12.90" shape="2001.60,3193.60 2001.10,3197.10 1999.60,3199.60 1997.10,3201.10 1993.60,3201.60"/>
    </edge>
    <edge id=":1447_2" function="internal">
        <lane id=":1447_2_0" index="0" speed="3.90" length="2.58" shape="1993.60,3195.20 1994.30,3195.10 1994.80,3194.80 1995.10,3194.30 1995.20,3193.60"/>
        <lane id=":1447_2_1" index="1" speed="6.08" length="7.74" shape="1993.60,3198.40 1995.70,3198.10 1997.20,3197.20 1998.10,3195.70 1998.40,3193.60"/>
    </edge>