<?xml version="1.0" encoding="UTF-8"?>

<!-- generated on 2025-02-28 10:25:20.188023 by randomTrips.py v1_19_0+1770-8bb5c24c187
<configuration>
    <net-file value="random.net.xml"/>
    <output-trip-file value="random.trips.xml"/>
    <min-distance.fringe value="1200.0"/>
    <remove-loops value="True"/>
    <validate value="True"/>
    <insertion-rate value="8200.0"/>
    <random-depart value="True"/>
</configuration>
-->

<!-- generated on 2025-02-28 10:25:19 by Eclipse SUMO duarouter Version v1_19_0+1770-8bb5c24c187
<configuration xmlns:xsi="http://www.w3.org/2001/XMLSchema-instance" xsi:noNamespaceSchemaLocation="http://sumo.dlr.de/xsd/duarouterConfiguration.xsd">

    <input>
        <net-file value="random.net.xml"/>
        <route-files value="random.trips.xml"/>
    </input>

    <output>
        <output-file value="random.trips.xml.tmp"/>
        <alternatives-output value="NUL"/>
        <write-trips value="true"/>
    </output>

    <processing>
        <remove-loops value="true"/>
    </processing>

    <time>
        <begin value="0.0"/>
        <end value="3600.0"/>
    </time>

    <report>
        <no-warnings value="true"/>
        <ignore-errors value="true"/>
        <no-step-log value="true"/>
    </report>

</configuration>
-->

<routes xmlns:xsi="http://www.w3.org/2001/XMLSchema-instance" xsi:noNamespaceSchemaLocation="http://sumo.dlr.de/xsd/routes_file.xsd">
    <trip id="0" depart="0.66" from="258" to="4311"/>
    <trip id="1" depart="0.83" from="-353" to="6260"/>
    <trip id="2" depart="0.98" from="-3368" to="5756"/>
    <trip id="3" depart="1.15" from="-5998" to="5003"/>
    <trip id="4" depart="1.73" from="-1677" to="-21"/>
    <trip id="5" depart="2.00" from="3" to="1108"/>
    <trip id="6" depart="2.22" from="8191" to="6431"/>
    <trip id="7" depart="2.93" from="2656" to="7267"/>
    <trip id="8" depart="4.02" from="-275" to="301"/>
    <trip id="9" depart="4.07" from="-4863" to="3497"/>
    <trip id="10" depart="4.71" from="-2054" to="6264"/>
    <trip id="11" depart="5.12" from="6291" to="-3963"/>
    <trip id="12" depart="6.46" from="-2425" to="5509"/>
    <trip id="13" depart="6.49" from="-6298" to="1559"/>
    <trip id="14" depart="6.85" from="-2038" to="3974"/>
    <trip id="15" depart="8.32" from="-6429" to="6739"/>
    <trip id="16" depart="8.49" from="-2069" to="1072"/>
    <trip id="17" depart="10.39" from="-3230" to="533"/>
    <trip id="18" depart="10.59" from="6260" to="3949"/>
    <trip id="19" depart="11.27" from="2069" to="6283"/>
    <trip id="20" depart="11.29" from="-27" to="6131"/>
    <trip id="21" depart="11.83" from="-5478" to="939"/>
    <trip id="22" depart="12.41" from="-1568" to="1072"/>
    <trip id="23" depart="14.51" from="-805" to="-4989"/>
    <trip id="24" depart="14.66" from="275" to="3230"/>
    <trip id="25" depart="14.71" from="-8314" to="2042"/>
    <trip id="26" depart="15.00" from="-3945" to="-43"/>
    <trip id="27" depart="15.49" from="-5860" to="6855"/>
    <trip id="28" depart="15.73" from="-1439" to="3"/>
    <trip id="29" depart="16.88" from="-2084" to="468"/>
    <trip id="30" depart="17.46" from="-2875" to="-5033"/>
    <trip id="31" depart="17.56" from="-3712" to="-2418"/>
    <trip id="32" depart="17.83" from="-3223" to="3729"/>
    <trip id="33" depart="18.73" from="-7096" to="5860"/>
    <trip id="34" depart="19.32" from="-6514" to="7517"/>
    <trip id="35" depart="19.37" from="6443" to="-4882"/>
    <trip id="36" depart="20.17" from="-3711" to="6264"/>
    <trip id="37" depart="20.51" from="3248" to="789"/>
    <trip id="38" depart="21.15" from="258" to="5494"/>
    <trip id="39" depart="21.24" from="1448" to="330"/>
    <trip id="40" depart="21.46" from="-3729" to="5"/>
    <trip id="41" depart="21.63" from="-6489" to="1062"/>
    <trip id="42" depart="21.83" from="-1561" to="5016"/>
    <trip id="43" depart="23.24" from="-515" to="266"/>
    <trip id="44" depart="24.78" from="-6020" to="3834"/>
    <trip id="45" depart="24.90" from="-5517" to="678"/>
    <trip id="46" depart="26.49" from="5007" to="1072"/>
    <trip id="47" depart="26.51" from="-5982" to="786"/>
    <trip id="48" depart="26.73" from="-480" to="-7278"/>
    <trip id="49" depart="27.15" from="-1677" to="6489"/>
    <trip id="50" depart="27.22" from="7082" to="21"/>
    <trip id="51" depart="29.15" from="-6263" to="270"/>
    <trip id="52" depart="29.22" from="4989" to="-8191"/>
    <trip id="53" depart="29.32" from="-338" to="4867"/>
    <trip id="54" depart="29.34" from="-3949" to="-6453"/>
    <trip id="55" depart="29.61" from="-301" to="5478"/>
    <trip id="56" depart="31.29" from="-1089" to="4647"/>
    <trip id="57" depart="32.02" from="3248" to="4094"/>
    <trip id="58" depart="32.37" from="1092" to="5517"/>
    <trip id="59" depart="33.41" from="-4307" to="1930"/>
    <trip id="60" depart="33.66" from="-5001" to="-4085"/>
    <trip id="61" depart="33.73" from="-3949" to="27"/>
    <trip id="62" depart="34.32" from="-3234" to="7517"/>
    <trip id="63" depart="34.41" from="493" to="4094"/>
    <trip id="64" depart="34.73" from="1102" to="3720"/>
    <trip id="65" depart="36.15" from="2883" to="937"/>
    <trip id="66" depart="36.51" from="-500" to="3729"/>
    <trip id="67" depart="36.90" from="-1677" to="1573"/>
    <trip id="68" depart="37.22" from="-1568" to="5038"/>
    <trip id="69" depart="37.49" from="-270" to="1085"/>
    <trip id="70" depart="37.61" from="1573" to="303"/>
    <trip id="71" depart="38.32" from="-4422" to="-1104"/>
    <trip id="72" depart="38.49" from="-1102" to="5459"/>
    <trip id="73" depart="38.51" from="1104" to="1069"/>
    <trip id="74" depart="39.00" from="-7082" to="289"/>
    <trip id="75" depart="39.02" from="7278" to="154"/>
    <trip id="76" depart="39.41" from="-8310" to="2084"/>
    <trip id="77" depart="39.51" from="-541" to="-11"/>
    <trip id="78" depart="40.29" from="-7213" to="-6027"/>
    <trip id="79" depart="40.44" from="-6298" to="-5352"/>
    <trip id="80" depart="41.98" from="-515" to="-6133"/>
    <trip id="81" depart="42.93" from="-2069" to="533"/>
    <trip id="82" depart="43.15" from="-7497" to="-1573"/>
    <trip id="83" depart="43.27" from="-5038" to="8321"/>
    <trip id="84" depart="43.44" from="-7497" to="3711"/>
    <trip id="85" depart="43.51" from="6272" to="6263"/>
    <trip id="86" depart="43.63" from="-6739" to="2654"/>
    <trip id="87" depart="43.93" from="-4085" to="6011"/>
    <trip id="88" depart="46.59" from="-2892" to="939"/>
    <trip id="89" depart="46.71" from="541" to="500"/>
    <trip id="90" depart="46.78" from="-4094" to="2311"/>
    <trip id="91" depart="47.56" from="3364" to="5976"/>
    <trip id="92" depart="47.63" from="-5003" to="2311"/>
    <trip id="93" depart="48.15" from="-1072" to="4647"/>
    <trip id="94" depart="48.63" from="-1690" to="6526"/>
    <trip id="95" depart="48.63" from="-1561" to="1677"/>
    <trip id="96" depart="48.93" from="508" to="-5007"/>
    <trip id="97" depart="49.32" from="289" to="5478"/>
    <trip id="98" depart="49.80" from="-6009" to="480"/>
    <trip id="99" depart="50.15" from="-6446" to="2892"/>
    <trip id="100" depart="50.39" from="270" to="-5509"/>
    <trip id="101" depart="50.49" from="-303" to="295"/>
    <trip id="102" depart="51.07" from="-518" to="6747"/>
    <trip id="103" depart="51.37" from="2084" to="4085"/>
    <trip id="104" depart="51.73" from="-805" to="4860"/>
    <trip id="105" depart="52.95" from="-7238" to="1568"/>
    <trip id="106" depart="53.27" from="-500" to="531"/>
    <trip id="107" depart="53.93" from="-7267" to="-2418"/>
    <trip id="108" depart="54.63" from="4085" to="4879"/>
    <trip id="109" depart="55.63" from="-5517" to="6133"/>
    <trip id="110" depart="55.95" from="-462" to="3720"/>
    <trip id="111" depart="56.07" from="-5352" to="-470"/>
    <trip id="112" depart="56.07" from="-2042" to="1677"/>
    <trip id="113" depart="56.88" from="-3944" to="4094"/>
    <trip id="114" depart="57.46" from="-7213" to="-6742"/>
    <trip id="115" depart="57.54" from="-7278" to="-6027"/>
    <trip id="116" depart="57.93" from="-500" to="515"/>
    <trip id="117" depart="58.44" from="-786" to="-5475"/>
    <trip id="118" depart="59.68" from="-678" to="4867"/>
    <trip id="119" depart="59.85" from="-262" to="6267"/>
    <trip id="120" depart="60.05" from="262" to="289"/>
    <trip id="121" depart="60.71" from="-6322" to="-6747"/>
    <trip id="122" depart="61.07" from="-678" to="330"/>
    <trip id="123" depart="61.39" from="-3720" to="-7216"/>
    <trip id="124" depart="64.85" from="-1930" to="-789"/>
    <trip id="125" depart="65.22" from="-289" to="7625"/>
    <trip id="126" depart="65.76" from="1108" to="2654"/>
    <trip id="127" depart="66.88" from="-6872" to="-266"/>
    <trip id="128" depart="67.10" from="2656" to="1102"/>
    <trip id="129" depart="68.05" from="-6872" to="5016"/>
    <trip id="130" depart="68.80" from="-7231" to="21"/>
    <trip id="131" depart="69.24" from="-5509" to="-2769"/>
    <trip id="132" depart="70.07" from="-939" to="-6267"/>
    <trip id="133" depart="70.27" from="-3944" to="-7082"/>
    <trip id="134" depart="71.24" from="-6453" to="5982"/>
    <trip id="135" depart="72.39" from="-654" to="-6446"/>
    <trip id="136" depart="72.54" from="-1573" to="6739"/>
    <trip id="137" depart="73.10" from="6453" to="3727"/>
    <trip id="138" depart="73.41" from="-3497" to="-338"/>
    <trip id="139" depart="75.98" from="-4989" to="3230"/>
    <trip id="140" depart="76.00" from="-7975" to="2661"/>
    <trip id="141" depart="76.37" from="-1677" to="-4882"/>
    <trip id="142" depart="76.49" from="2656" to="-270"/>
    <trip id="143" depart="76.68" from="6011" to="2883"/>
    <trip id="144" depart="76.73" from="-4422" to="2192"/>
    <trip id="145" depart="77.02" from="-4989" to="6526"/>
    <trip id="146" depart="77.10" from="-303" to="-7231"/>
    <trip id="147" depart="77.63" from="-6147" to="4311"/>
    <trip id="148" depart="77.88" from="503" to="468"/>
    <trip id="149" depart="79.07" from="-7501" to="3368"/>
    <trip id="150" depart="79.51" from="-3727" to="353"/>
    <trip id="151" depart="79.51" from="-315" to="5129"/>
    <trip id="152" depart="79.93" from="-1069" to="3709"/>
    <trip id="153" depart="80.05" from="-6264" to="3364"/>
    <trip id="154" depart="80.49" from="-353" to="6281"/>
    <trip id="155" depart="80.80" from="-289" to="3368"/>
    <trip id="156" depart="81.20" from="2883" to="330"/>
    <trip id="157" depart="81.22" from="-5352" to="1089"/>
    <trip id="158" depart="81.54" from="7238" to="3974"/>
    <trip id="159" depart="81.61" from="-6446" to="-1104"/>
    <trip id="160" depart="81.76" from="-786" to="6514"/>
    <trip id="161" depart="82.17" from="-3260" to="5133"/>
    <trip id="162" depart="83.22" from="-1089" to="6264"/>
    <trip id="163" depart="83.88" from="-7224" to="-1062"/>
    <trip id="164" depart="84.02" from="-5494" to="-1326"/>
    <trip id="165" depart="84.56" from="-1568" to="1102"/>
    <trip id="166" depart="85.76" from="2879" to="5133"/>
    <trip id="167" depart="85.88" from="-4201" to="-1907"/>
    <trip id="168" depart="86.02" from="-3834" to="533"/>
    <trip id="169" depart="86.34" from="-2425" to="5741"/>
    <trip id="170" depart="86.54" from="-539" to="1568"/>
    <trip id="171" depart="86.61" from="-5509" to="2425"/>
    <trip id="172" depart="87.20" from="266" to="-4989"/>
    <trip id="173" depart="87.88" from="-6872" to="6020"/>
    <trip id="174" depart="88.17" from="-5069" to="5982"/>
    <trip id="175" depart="89.24" from="-7975" to="3963"/>
    <trip id="176" depart="89.85" from="-5459" to="6263"/>
    <trip id="177" depart="90.10" from="-7267" to="5016"/>
    <trip id="178" depart="90.32" from="-7975" to="3709"/>
    <trip id="179" depart="91.98" from="-303" to="-7278"/>
    <trip id="180" depart="92.15" from="-3974" to="939"/>
    <trip id="181" depart="92.83" from="-5533" to="-1448"/>
    <trip id="182" depart="93.49" from="-1108" to="4752"/>
    <trip id="183" depart="94.05" from="-6453" to="-3963"/>
    <trip id="184" depart="94.56" from="2192" to="7231"/>
    <trip id="185" depart="94.95" from="-5998" to="266"/>
    <trip id="186" depart="94.98" from="-497" to="3377"/>
    <trip id="187" depart="97.37" from="-8337" to="7096"/>
    <trip id="188" depart="97.85" from="8195" to="6453"/>
    <trip id="189" depart="98.51" from="330" to="7096"/>
    <trip id="190" depart="98.80" from="-5494" to="-5979"/>
    <trip id="191" depart="98.90" from="15" to="7509"/>
    <trip id="192" depart="99.80" from="-4989" to="3712"/>
    <trip id="193" depart="99.90" from="1326" to="485"/>
    <trip id="194" depart="101.20" from="-5069" to="-2879"/>
    <trip id="195" depart="101.24" from="4860" to="275"/>
    <trip id="196" depart="102.32" from="-485" to="6131"/>
    <trip id="197" depart="102.37" from="-2656" to="-1085"/>
    <trip id="198" depart="105.20" from="6453" to="-307"/>
    <trip id="199" depart="105.20" from="2883" to="2069"/>
    <trip id="200" depart="105.63" from="-5016" to="2661"/>
    <trip id="201" depart="106.02" from="-3230" to="-1559"/>
    <trip id="202" depart="106.37" from="-1918" to="518"/>
    <trip id="203" depart="107.12" from="-678" to="43"/>
    <trip id="204" depart="107.63" from="-5016" to="-2879"/>
    <trip id="205" depart="107.66" from="-7278" to="1072"/>
    <trip id="206" depart="107.71" from="-5517" to="6131"/>
    <trip id="207" depart="109.24" from="-1677" to="-3"/>
    <trip id="208" depart="109.29" from="-5517" to="5470"/>
    <trip id="209" depart="109.44" from="-7517" to="786"/>
    <trip id="210" depart="109.80" from="-1072" to="7631"/>
    <trip id="211" depart="110.41" from="-3230" to="303"/>
    <trip id="212" depart="111.39" from="3380" to="-8195"/>
    <trip id="213" depart="111.41" from="-6298" to="-515"/>
    <trip id="214" depart="111.59" from="-1443" to="7278"/>
    <trip id="215" depart="112.20" from="-470" to="4311"/>
    <trip id="216" depart="112.63" from="-6027" to="-7083"/>
    <trip id="217" depart="113.17" from="6260" to="6742"/>
    <trip id="218" depart="113.22" from="-6431" to="307"/>
    <trip id="219" depart="114.10" from="3261" to="937"/>
    <trip id="220" depart="114.44" from="5509" to="5741"/>
    <trip id="221" depart="114.68" from="-2892" to="5237"/>
    <trip id="222" depart="114.68" from="-470" to="-7625"/>
    <trip id="223" depart="115.83" from="-3712" to="-541"/>
    <trip id="224" depart="115.85" from="-5033" to="7267"/>
    <trip id="225" depart="115.93" from="-7082" to="353"/>
    <trip id="226" depart="116.24" from="462" to="6131"/>
    <trip id="227" depart="117.59" from="-2418" to="2083"/>
    <trip id="228" depart="117.59" from="-3" to="1912"/>
    <trip id="229" depart="117.78" from="-2886" to="-6291"/>
    <trip id="230" depart="118.15" from="-5517" to="1108"/>
    <trip id="231" depart="118.76" from="7231" to="1102"/>
    <trip id="232" depart="119.20" from="6291" to="-1439"/>
    <trip id="233" depart="119.49" from="4085" to="2311"/>
    <trip id="234" depart="120.34" from="-295" to="7082"/>
    <trip id="235" depart="120.34" from="-470" to="289"/>
    <trip id="236" depart="120.56" from="-5982" to="330"/>
    <trip id="237" depart="120.90" from="6131" to="6489"/>
    <trip id="238" depart="120.95" from="-1690" to="6264"/>
    <trip id="239" depart="121.51" from="-2875" to="4094"/>
    <trip id="240" depart="121.68" from="-7082" to="515"/>
    <trip id="241" depart="121.80" from="-7975" to="6147"/>
    <trip id="242" depart="122.46" from="-2084" to="5016"/>
    <trip id="243" depart="123.22" from="8195" to="266"/>
    <trip id="244" depart="125.63" from="1559" to="5998"/>
    <trip id="245" depart="125.63" from="-1089" to="468"/>
    <trip id="246" depart="126.20" from="-5459" to="-2875"/>
    <trip id="247" depart="127.07" from="1443" to="1926"/>
    <trip id="248" depart="127.29" from="3248" to="-485"/>
    <trip id="249" depart="127.32" from="-789" to="27"/>
    <trip id="250" depart="127.39" from="7509" to="-295"/>
    <trip id="251" depart="127.78" from="6011" to="3709"/>
    <trip id="252" depart="127.80" from="-315" to="3377"/>
    <trip id="253" depart="128.07" from="-3261" to="7497"/>
    <trip id="254" depart="129.56" from="-4882" to="3364"/>
    <trip id="255" depart="130.44" from="-3712" to="1930"/>
    <trip id="256" depart="130.56" from="307" to="6514"/>
    <trip id="257" depart="131.10" from="-7975" to="4879"/>
    <trip id="258" depart="131.80" from="-258" to="-1326"/>
    <trip id="259" depart="132.00" from="-7519" to="6857"/>
    <trip id="260" depart="132.07" from="6446" to="533"/>
    <trip id="261" depart="132.41" from="-7267" to="353"/>
    <trip id="262" depart="132.49" from="-4311" to="6267"/>
    <trip id="263" depart="132.93" from="-4863" to="3248"/>
    <trip id="264" depart="133.10" from="-6526" to="3945"/>
    <trip id="265" depart="133.20" from="-2769" to="-305"/>
    <trip id="266" depart="133.51" from="-1108" to="301"/>
    <trip id="267" depart="133.66" from="3711" to="-4860"/>
    <trip id="268" depart="133.90" from="-7647" to="480"/>
    <trip id="269" depart="133.98" from="-3712" to="15"/>
    <trip id="270" depart="134.85" from="-5016" to="-262"/>
    <trip id="271" depart="134.95" from="15" to="-6443"/>
    <trip id="272" depart="136.29" from="4989" to="-6747"/>
    <trip id="273" depart="137.05" from="-4867" to="-1104"/>
    <trip id="274" depart="137.22" from="-500" to="307"/>
    <trip id="275" depart="137.71" from="-5001" to="-2769"/>
    <trip id="276" depart="137.80" from="-6131" to="289"/>
    <trip id="277" depart="138.49" from="-1448" to="3729"/>
    <trip id="278" depart="139.59" from="262" to="1062"/>
    <trip id="279" depart="141.15" from="6267" to="-6272"/>
    <trip id="280" depart="141.46" from="-2892" to="6526"/>
    <trip id="281" depart="141.46" from="-6857" to="1085"/>
    <trip id="282" depart="141.95" from="-3223" to="1799"/>
    <trip id="283" depart="142.63" from="541" to="-4085"/>
    <trip id="284" depart="142.83" from="-6131" to="2083"/>
    <trip id="285" depart="144.39" from="786" to="3377"/>
    <trip id="286" depart="144.95" from="-307" to="3944"/>
    <trip id="287" depart="146.27" from="-1085" to="11"/>
    <trip id="288" depart="146.85" from="539" to="301"/>
    <trip id="289" depart="147.29" from="470" to="3945"/>
    <trip id="290" depart="147.68" from="6443" to="1930"/>
    <trip id="291" depart="149.93" from="-5129" to="-154"/>
    <trip id="292" depart="150.05" from="7238" to="3230"/>
    <trip id="293" depart="150.44" from="-3368" to="4867"/>
    <trip id="294" depart="150.76" from="7625" to="3945"/>
    <trip id="295" depart="151.27" from="-4860" to="480"/>
    <trip id="296" depart="151.29" from="-15" to="289"/>
    <trip id="297" depart="151.29" from="1443" to="-6027"/>
    <trip id="298" depart="151.34" from="-1926" to="-1443"/>
    <trip id="299" depart="151.80" from="654" to="-4752"/>
    <trip id="300" depart="151.98" from="2661" to="1799"/>
    <trip id="301" depart="152.78" from="2879" to="5517"/>
    <trip id="302" depart="153.51" from="43" to="531"/>
    <trip id="303" depart="153.56" from="-6298" to="5509"/>
    <trip id="304" depart="154.02" from="262" to="6514"/>
    <trip id="305" depart="154.20" from="-3377" to="-6742"/>
    <trip id="306" depart="154.29" from="7625" to="7238"/>
    <trip id="307" depart="154.56" from="-1916" to="-4882"/>
    <trip id="308" depart="154.71" from="-15" to="5088"/>
    <trip id="309" depart="155.00" from="-654" to="-6514"/>
    <trip id="310" depart="155.17" from="-2069" to="-786"/>
    <trip id="311" depart="156.66" from="-3261" to="266"/>
    <trip id="312" depart="156.85" from="-6747" to="2892"/>
    <trip id="313" depart="156.90" from="2084" to="266"/>
    <trip id="314" depart="156.93" from="-3709" to="1568"/>
    <trip id="315" depart="157.00" from="2879" to="462"/>
    <trip id="316" depart="158.66" from="-3709" to="833"/>
    <trip id="317" depart="159.29" from="-8195" to="5478"/>
    <trip id="318" depart="159.46" from="-21" to="-1326"/>
    <trip id="319" depart="160.37" from="7231" to="2425"/>
    <trip id="320" depart="160.73" from="-1448" to="301"/>
    <trip id="321" depart="160.80" from="-1072" to="533"/>
    <trip id="322" depart="161.34" from="1092" to="6429"/>
    <trip id="323" depart="161.61" from="-5470" to="4422"/>
    <trip id="324" depart="162.37" from="7224" to="5003"/>
    <trip id="325" depart="162.73" from="-8195" to="3712"/>
    <trip id="326" depart="163.07" from="-3729" to="6020"/>
    <trip id="327" depart="163.15" from="-7509" to="-6272"/>
    <trip id="328" depart="163.17" from="-6131" to="6281"/>
    <trip id="329" depart="163.51" from="-4879" to="-939"/>
    <trip id="330" depart="163.63" from="-2038" to="6446"/>
    <trip id="331" depart="164.15" from="1092" to="2883"/>
    <trip id="332" depart="164.68" from="-789" to="-262"/>
    <trip id="333" depart="164.95" from="-7507" to="-1690"/>
    <trip id="334" depart="164.95" from="-8321" to="1108"/>
    <trip id="335" depart="165.37" from="-5016" to="5133"/>
    <trip id="336" depart="165.83" from="5033" to="6857"/>
    <trip id="337" depart="166.51" from="-5533" to="6446"/>
    <trip id="338" depart="167.76" from="-3223" to="5129"/>
    <trip id="339" depart="167.88" from="-8314" to="-4863"/>
    <trip id="340" depart="168.54" from="-7975" to="3240"/>
    <trip id="341" depart="168.56" from="-5129" to="3261"/>
    <trip id="342" depart="168.80" from="-8337" to="6742"/>
    <trip id="343" depart="168.90" from="-1439" to="7497"/>
    <trip id="344" depart="168.98" from="8191" to="3834"/>
    <trip id="345" depart="170.24" from="-1443" to="789"/>
    <trip id="346" depart="171.17" from="-3712" to="663"/>
    <trip id="347" depart="171.22" from="-1912" to="-3945"/>
    <trip id="348" depart="171.85" from="-5003" to="5860"/>
    <trip id="349" depart="172.07" from="-3944" to="7096"/>
    <trip id="350" depart="172.17" from="1916" to="-1573"/>
    <trip id="351" depart="172.51" from="4882" to="-270"/>
    <trip id="352" depart="173.10" from="-1907" to="6133"/>
    <trip id="353" depart="173.73" from="493" to="-6133"/>
    <trip id="354" depart="173.85" from="1930" to="-7625"/>
    <trip id="355" depart="173.98" from="-353" to="7271"/>
    <trip id="356" depart="174.12" from="5979" to="1448"/>
    <trip id="357" depart="174.27" from="-2879" to="-5"/>
    <trip id="358" depart="174.88" from="-262" to="1690"/>
    <trip id="359" depart="175.78" from="-4094" to="6264"/>
    <trip id="360" depart="176.02" from="-7238" to="541"/>
    <trip id="361" depart="178.05" from="5509" to="-468"/>
    <trip id="362" depart="178.44" from="6514" to="1439"/>
    <trip id="363" depart="178.68" from="-462" to="3727"/>
    <trip id="364" depart="179.17" from="-1799" to="663"/>
    <trip id="365" depart="179.20" from="-2886" to="-1102"/>
    <trip id="366" depart="179.66" from="-7252" to="-6747"/>
    <trip id="367" depart="179.73" from="-5998" to="-2879"/>
    <trip id="368" depart="180.05" from="-305" to="262"/>
    <trip id="369" depart="180.22" from="-2661" to="-275"/>
    <trip id="370" depart="180.41" from="1916" to="6872"/>
    <trip id="371" depart="180.44" from="6131" to="-6131"/>
    <trip id="372" depart="180.61" from="-6298" to="-485"/>
    <trip id="373" depart="181.00" from="-2202" to="1089"/>
    <trip id="374" depart="181.07" from="-6291" to="5120"/>
    <trip id="375" depart="181.49" from="493" to="2202"/>
    <trip id="376" depart="182.83" from="-1568" to="5533"/>
    <trip id="377" depart="183.17" from="-5494" to="4882"/>
    <trip id="378" depart="183.29" from="-1907" to="-1907"/>
    <trip id="379" depart="183.71" from="-6526" to="5120"/>
    <trip id="380" depart="184.76" from="-5129" to="3223"/>
    <trip id="381" depart="184.83" from="5982" to="949"/>
    <trip id="382" depart="185.71" from="-2879" to="-7083"/>
    <trip id="383" depart="185.73" from="2654" to="3944"/>
    <trip id="384" depart="185.80" from="-2054" to="7497"/>
    <trip id="385" depart="186.15" from="-3729" to="4863"/>
    <trip id="386" depart="186.22" from="-500" to="678"/>
    <trip id="387" depart="186.27" from="539" to="949"/>
    <trip id="388" depart="186.44" from="-508" to="-6443"/>
    <trip id="389" depart="186.90" from="943" to="6435"/>
    <trip id="390" depart="187.05" from="-4647" to="6742"/>
    <trip id="391" depart="187.12" from="-515" to="2423"/>
    <trip id="392" depart="187.39" from="262" to="6131"/>
    <trip id="393" depart="187.51" from="-6283" to="7625"/>
    <trip id="394" depart="188.02" from="-7271" to="2083"/>
    <trip id="395" depart="188.27" from="6272" to="6260"/>
    <trip id="396" depart="188.71" from="-805" to="539"/>
    <trip id="397" depart="188.88" from="943" to="-2875"/>
    <trip id="398" depart="189.80" from="3364" to="5475"/>
    <trip id="399" depart="189.90" from="15" to="480"/>
    <trip id="400" depart="189.95" from="-654" to="-518"/>
    <trip id="401" depart="190.39" from="7083" to="1108"/>
    <trip id="402" depart="190.46" from="508" to="5016"/>
    <trip id="403" depart="190.56" from="1448" to="5352"/>
    <trip id="404" depart="191.68" from="7278" to="1916"/>
    <trip id="405" depart="192.02" from="-533" to="-6742"/>
    <trip id="406" depart="192.44" from="-1102" to="6739"/>
    <trip id="407" depart="192.49" from="-663" to="4422"/>
    <trip id="408" depart="192.61" from="-6009" to="3949"/>
    <trip id="409" depart="193.49" from="-8310" to="3949"/>
    <trip id="410" depart="194.29" from="-1443" to="515"/>
    <trip id="411" depart="194.63" from="-6739" to="7083"/>
    <trip id="412" depart="195.05" from="-3834" to="5998"/>
    <trip id="413" depart="195.10" from="5033" to="-5007"/>
    <trip id="414" depart="195.10" from="-3729" to="-43"/>
    <trip id="415" depart="195.49" from="1326" to="5001"/>
    <trip id="416" depart="197.66" from="-1926" to="6431"/>
    <trip id="417" depart="198.15" from="468" to="7267"/>
    <trip id="418" depart="198.54" from="-3729" to="5756"/>
    <trip id="419" depart="199.32" from="-949" to="7625"/>
    <trip id="420" depart="200.10" from="-654" to="5129"/>
    <trip id="421" depart="200.80" from="-937" to="2202"/>
    <trip id="422" depart="201.12" from="-6435" to="4989"/>
    <trip id="423" depart="201.54" from="-4094" to="5003"/>
    <trip id="424" depart="201.61" from="7231" to="-1108"/>
    <trip id="425" depart="203.90" from="-937" to="-485"/>
    <trip id="426" depart="204.29" from="-6264" to="-508"/>
    <trip id="427" depart="205.12" from="2883" to="5038"/>
    <trip id="428" depart="205.15" from="-949" to="531"/>
    <trip id="429" depart="205.29" from="-5033" to="2875"/>
    <trip id="430" depart="205.56" from="-154" to="5038"/>
    <trip id="431" depart="206.10" from="-4882" to="-4882"/>
    <trip id="432" depart="206.17" from="258" to="531"/>
    <trip id="433" depart="206.27" from="1092" to="541"/>
    <trip id="434" depart="206.41" from="2656" to="6133"/>
    <trip id="435" depart="207.05" from="515" to="949"/>
    <trip id="436" depart="207.63" from="-1102" to="-1085"/>
    <trip id="437" depart="207.76" from="-15" to="-6291"/>
    <trip id="438" depart="208.83" from="2084" to="266"/>
    <trip id="439" depart="210.17" from="-6281" to="289"/>
    <trip id="440" depart="210.27" from="-2069" to="678"/>
    <trip id="441" depart="210.95" from="943" to="7631"/>
    <trip id="442" depart="211.07" from="-654" to="-500"/>
    <trip id="443" depart="211.10" from="-470" to="500"/>
    <trip id="444" depart="212.27" from="-7501" to="-468"/>
    <trip id="445" depart="212.95" from="-3261" to="6443"/>
    <trip id="446" depart="213.32" from="262" to="4752"/>
    <trip id="447" depart="213.39" from="258" to="353"/>
    <trip id="448" depart="213.56" from="7625" to="-943"/>
    <trip id="449" depart="213.59" from="-515" to="2656"/>
    <trip id="450" depart="213.83" from="-4201" to="7625"/>
    <trip id="451" depart="213.88" from="-937" to="8202"/>
    <trip id="452" depart="213.88" from="-11" to="6264"/>
    <trip id="453" depart="214.29" from="-518" to="2418"/>
    <trip id="454" depart="214.61" from="-1561" to="480"/>
    <trip id="455" depart="214.85" from="2656" to="1916"/>
    <trip id="456" depart="215.66" from="-266" to="2069"/>
    <trip id="457" depart="217.12" from="-3727" to="2875"/>
    <trip id="458" depart="217.15" from="5033" to="4422"/>
    <trip id="459" depart="217.32" from="-2038" to="819"/>
    <trip id="460" depart="218.80" from="-5001" to="-1326"/>
    <trip id="461" depart="219.66" from="-1690" to="6322"/>
    <trip id="462" depart="219.76" from="-786" to="678"/>
    <trip id="463" depart="220.98" from="-5994" to="7507"/>
    <trip id="464" depart="221.20" from="-5032" to="786"/>
    <trip id="465" depart="221.22" from="-5976" to="515"/>
    <trip id="466" depart="221.46" from="-305" to="303"/>
    <trip id="467" depart="221.80" from="262" to="-4085"/>
    <trip id="468" depart="221.88" from="-5129" to="493"/>
    <trip id="469" depart="222.10" from="-3709" to="5459"/>
    <trip id="470" depart="222.66" from="-3230" to="7501"/>
    <trip id="471" depart="222.88" from="-6009" to="2892"/>
    <trip id="472" depart="223.00" from="262" to="305"/>
    <trip id="473" depart="223.12" from="-3963" to="3727"/>
    <trip id="474" depart="223.44" from="7216" to="-786"/>
    <trip id="475" depart="223.63" from="-937" to="-275"/>
    <trip id="476" depart="223.68" from="-949" to="-338"/>
    <trip id="477" depart="224.61" from="3380" to="2311"/>
    <trip id="478" depart="225.39" from="-275" to="6489"/>
    <trip id="479" depart="225.80" from="-4863" to="3230"/>
    <trip id="480" depart="227.24" from="-2654" to="2054"/>
    <trip id="481" depart="227.27" from="-515" to="3727"/>
    <trip id="482" depart="228.76" from="1104" to="7096"/>
    <trip id="483" depart="229.00" from="-533" to="5517"/>
    <trip id="484" depart="229.17" from="-789" to="470"/>
    <trip id="485" depart="229.37" from="-5133" to="8195"/>
    <trip id="486" depart="229.46" from="-3" to="1062"/>