<?xml version="1.0" encoding="UTF-8"?>

<!-- generated on 2025-03-01 21:15:16 by Eclipse SUMO netedit Version 1.20.0
<configuration xmlns:xsi="http://www.w3.org/2001/XMLSchema-instance" xsi:noNamespaceSchemaLocation="http://sumo.dlr.de/xsd/neteditConfiguration.xsd">

    <input>
        <sumo-net-file value="/Users/rohitbokade/Desktop/cologne/cologne_8.net.xml"/>
    </input>

    <output>
        <output-file value="/Users/rohitbokade/Desktop/cologne/cologne_8.net.xml"/>
    </output>

    <processing>
        <geometry.min-radius.fix.railways value="false"/>
        <geometry.max-grade.fix value="false"/>
        <offset.disable-normalization value="true"/>
        <lefthand value="0"/>
    </processing>

    <junctions>
        <no-turnarounds value="true"/>
        <junctions.corner-detail value="0"/>
        <junctions.limit-turn-speed value="-1.00"/>
        <rectangular-lane-cut value="0"/>
    </junctions>

    <pedestrian>
        <walkingareas value="0"/>
    </pedestrian>

</configuration>
-->

<net version="1.20" xmlns:xsi="http://www.w3.org/2001/XMLSchema-instance" xsi:noNamespaceSchemaLocation="http://sumo.dlr.de/xsd/net_file.xsd">

    <location netOffset="-342498.65,-5630866.92" convBoundary="14312.27,17166.00,14588.95,17439.27" origBoundary="6.166558,50.735925,7.295276,51.840721" projParameter="+proj=utm +zone=32 +ellps=WGS84 +datum=WGS84 +units=m +no_defs"/>

    <type id="highway.residential" priority="4" numLanes="1" speed="13.89" disallow="tram rail_urban rail rail_electric ship" oneway="1"/>
    <type id="highway.tertiary" priority="6" numLanes="1" speed="13.89" disallow="tram rail_urban rail rail_electric ship" oneway="1"/>

    <edge id=":256201389_0" function="internal">
        <lane id=":256201389_0_0" index="0" disallow="tram rail_urban rail rail_electric rail_fast ship cable_car subway" speed="13.89" length="9.04" shape="14497.38,17274.33 14496.73,17271.90 14495.45,17270.35 14493.56,17269.68 14491.06,17269.88"/>
    </edge>
    <edge id=":256201389_1" function="internal">
        <lane id=":256201389_1_0" index="0" disallow="tram rail_urban rail rail_electric rail_fast ship cable_car subway" speed="11.11" length="14.31" shape="14497.38,17274.33 14497.40,17270.32 14498.53,17267.14 14500.76,17264.79 14504.11,17263.27"/>
    </edge>
    <edge id=":256201389_2" function="internal">
        <lane id=":256201389_2_0" index="0" disallow="tram rail_urban rail rail_electric rail_fast ship cable_car subway" speed="13.89" length="1.44" shape="14497.38,17274.33 14498.03,17273.04"/>
    </edge>
    <edge id=":256201389_9" function="internal">
        <lane id=":256201389_9_0" index="0" disallow="tram rail_urban rail rail_electric rail_fast ship cable_car subway" speed="13.89" length="3.23" shape="14498.03,17273.04 14498.78,17272.55 14499.62,17272.85 14500.56,17273.94"/>
    </edge>
    <edge id=":256201389_3" function="internal">
        <lane id=":256201389_3_0" index="0" disallow="tram rail_urban rail rail_electric rail_fast ship cable_car subway" speed="11.11" length="9.71" shape="14504.98,17266.35 14502.77,17267.37 14501.29,17268.98 14500.56,17271.17 14500.56,17273.94"/>
    </edge>
    <edge id=":256201389_4" function="internal">
        <lane id=":256201389_4_0" index="0" disallow="tram rail_urban rail rail_electric rail_fast ship cable_car subway" speed="11.11" length="14.37" shape="14504.98,17266.35 14491.06,17269.88"/>
    </edge>
    <edge id=":256201389_5" function="internal">
        <lane id=":256201389_5_0" index="0" disallow="tram rail_urban rail rail_electric rail_fast ship cable_car subway" speed="8.33" length="1.44" shape="14504.98,17266.35 14503.61,17265.90"/>
    </edge>
    <edge id=":256201389_10" function="internal">
        <lane id=":256201389_10_0" index="0" disallow="tram rail_urban rail rail_electric rail_fast ship cable_car subway" speed="8.33" length="3.23" shape="14503.61,17265.90 14503.01,17265.24 14503.17,17264.36 14504.11,17263.27"/>
    </edge>
    <edge id=":256201389_6" function="internal">
        <lane id=":256201389_6_0" index="0" disallow="tram rail_urban rail rail_electric rail_fast ship cable_car subway" speed="11.11" length="14.20" shape="14490.34,17266.76 14504.11,17263.27"/>
    </edge>
    <edge id=":256201389_7" function="internal">
        <lane id=":256201389_7_0" index="0" disallow="tram rail_urban rail rail_electric rail_fast ship cable_car subway" speed="13.89" length="4.06" shape="14490.34,17266.76 14494.39,17266.43"/>
    </edge>
    <edge id=":256201389_8" function="internal">
        <lane id=":256201389_8_0" index="0" disallow="tram rail_urban rail rail_electric rail_fast ship cable_car subway" speed="13.89" length="1.44" shape="14490.34,17266.76 14491.69,17267.27"/>
    </edge>
    <edge id=":256201389_11" function="internal">
        <lane id=":256201389_11_0" index="0" disallow="tram rail_urban rail rail_electric rail_fast ship cable_car subway" speed="13.89" length="10.54" shape="14494.39,17266.43 14497.44,17267.52 14499.50,17270.02 14500.56,17273.94"/>
    </edge>
    <edge id=":256201389_12" function="internal">
        <lane id=":256201389_12_0" index="0" disallow="tram rail_urban rail rail_electric rail_fast ship cable_car subway" speed="13.89" length="3.23" shape="14491.69,17267.27 14492.26,17267.96 14492.05,17268.83 14491.06,17269.88"/>
    </edge>
    <edge id=":266574870_0" function="internal">
        <lane id=":266574870_0_0" index="0" disallow="tram rail_urban rail rail_electric rail_fast ship cable_car subway" speed="13.89" length="4.67" shape="14520.62,17439.08 14519.97,17440.36 14519.22,17440.86 14518.38,17440.56 14517.44,17439.46"/>
    </edge>
    <edge id=":3302156369_0" function="internal">
        <lane id=":3302156369_0_0" index="0" disallow="tram rail_urban rail rail_electric rail_fast ship cable_car subway" speed="13.89" length="4.67" shape="14504.58,17166.29 14505.15,17164.96 14505.86,17164.43 14506.72,17164.67 14507.72,17165.71"/>
    </edge>
    <edge id=":3302422976_0" function="internal">
        <lane id=":3302422976_0_0" index="0" disallow="tram rail_urban rail rail_electric rail_fast ship cable_car subway" speed="13.89" length="4.67" shape="14312.63,17310.62 14311.28,17310.11 14310.71,17309.42 14310.92,17308.55 14311.91,17307.50"/>
    </edge>
    <edge id=":3588475451_0" function="internal">
        <lane id=":3588475451_0_0" index="0" disallow="tram rail_urban rail rail_electric rail_fast ship cable_car subway" speed="8.33" length="14.43" shape="14531.03,17258.97 14517.15,17262.90"/>
    </edge>
    <edge id=":3588475451_1" function="internal">
        <lane id=":3588475451_1_0" index="0" disallow="tram rail_urban rail rail_electric rail_fast ship cable_car subway" speed="11.11" length="4.15" shape="14531.03,17258.97 14527.03,17259.51 14526.93,17259.48"/>
    </edge>
    <edge id=":3588475451_2" function="internal">
        <lane id=":3588475451_2_0" index="0" disallow="tram rail_urban rail rail_electric rail_fast ship cable_car subway" speed="8.33" length="1.44" shape="14531.03,17258.97 14529.66,17258.53"/>
    </edge>
    <edge id=":3588475451_9" function="internal">
        <lane id=":3588475451_9_0" index="0" disallow="tram rail_urban rail rail_electric rail_fast ship cable_car subway" speed="11.11" length="10.41" shape="14526.93,17259.48 14523.92,17258.59 14521.73,17256.21 14520.43,17252.38"/>
    </edge>
    <edge id=":3588475451_10" function="internal">
        <lane id=":3588475451_10_0" index="0" disallow="tram rail_urban rail rail_electric rail_fast ship cable_car subway" speed="8.33" length="3.23" shape="14529.66,17258.53 14529.06,17257.87 14529.23,17256.99 14530.16,17255.90"/>
    </edge>
    <edge id=":3588475451_3" function="internal">
        <lane id=":3588475451_3_0" index="0" disallow="tram rail_urban rail rail_electric rail_fast ship cable_car subway" speed="11.11" length="9.04" shape="14523.58,17251.80 14524.38,17254.18 14525.75,17255.66 14527.68,17256.23 14530.16,17255.90"/>
    </edge>
    <edge id=":3588475451_4" function="internal">
        <lane id=":3588475451_4_0" index="0" disallow="tram rail_urban rail rail_electric rail_fast ship cable_car subway" speed="11.11" length="14.34" shape="14523.58,17251.80 14523.79,17255.80 14522.79,17258.99 14520.57,17261.35 14517.15,17262.90"/>
    </edge>
    <edge id=":3588475451_5" function="internal">
        <lane id=":3588475451_5_0" index="0" disallow="tram rail_urban rail rail_electric rail_fast ship cable_car subway" speed="13.89" length="4.67" shape="14523.58,17251.80 14523.01,17253.13 14522.30,17253.67 14521.44,17253.42 14520.43,17252.38"/>
    </edge>
    <edge id=":3588475451_6" function="internal">
        <lane id=":3588475451_6_0" index="0" disallow="tram rail_urban rail rail_electric rail_fast ship cable_car subway" speed="11.11" length="9.52" shape="14516.28,17259.82 14518.51,17258.80 14519.94,17257.22 14520.59,17255.08 14520.43,17252.38"/>
    </edge>
    <edge id=":3588475451_7" function="internal">
        <lane id=":3588475451_7_0" index="0" disallow="tram rail_urban rail rail_electric rail_fast ship cable_car subway" speed="8.33" length="14.43" shape="14516.28,17259.82 14530.16,17255.90"/>
    </edge>
    <edge id=":3588475451_8" function="internal">
        <lane id=":3588475451_8_0" index="0" disallow="tram rail_urban rail rail_electric rail_fast ship cable_car subway" speed="8.33" length="1.44" shape="14516.28,17259.82 14517.65,17260.27"/>
    </edge>
    <edge id=":3588475451_11" function="internal">
        <lane id=":3588475451_11_0" index="0" disallow="tram rail_urban rail rail_electric rail_fast ship cable_car subway" speed="8.33" length="3.23" shape="14517.65,17260.27 14518.26,17260.93 14518.09,17261.81 14517.15,17262.90"/>
    </edge>
    <edge id=":652791048_0" function="internal">
        <lane id=":652791048_0_0" index="0" disallow="tram rail_urban rail rail_electric rail_fast ship cable_car subway" speed="8.33" length="4.67" shape="14588.51,17239.39 14589.89,17239.83 14590.49,17240.49 14590.32,17241.37 14589.39,17242.47"/>
    </edge>

    <edge id="-225249129#0" from="3588475451" to="256201389" priority="6" type="highway.tertiary">
        <lane id="-225249129#0_0" index="0" disallow="tram rail_urban rail rail_electric rail_fast ship cable_car subway" speed="8.33" length="12.65" shape="14517.15,17262.90 14504.98,17266.35"/>
    </edge>
    <edge id="-225249129#1" from="652791048" to="3588475451" priority="6" type="highway.tertiary">
        <lane id="-225249129#1_0" index="0" disallow="tram rail_urban rail rail_electric rail_fast ship cable_car subway" speed="8.33" length="60.64" shape="14589.39,17242.47 14531.03,17258.97"/>
    </edge>
    <edge id="-23648008#3" from="256201389" to="3302422976" priority="6" type="highway.tertiary" shape="14498.06,17266.64 14432.02,17281.72 14312.27,17309.06">
        <lane id="-23648008#3_0" index="0" disallow="tram rail_urban rail rail_electric rail_fast ship cable_car subway" speed="13.89" length="183.02" shape="14491.06,17269.88 14432.38,17283.28 14312.63,17310.62"/>
    </edge>
    <edge id="-24487264" from="266574870" to="256201389" priority="4" type="highway.residential">
        <lane id="-24487264_0" index="0" disallow="tram rail_urban rail rail_electric rail_fast ship cable_car subway" speed="13.89" length="166.35" shape="14517.44,17439.46 14497.38,17274.33"/>
    </edge>
    <edge id="-353069169#0" from="3302156369" to="3588475451" priority="4" type="highway.residential" shape="14506.15,17166.00 14519.07,17236.13 14520.10,17241.74 14521.65,17250.16 14523.37,17259.48">
        <lane id="-353069169#0_0" index="0" disallow="tram rail_urban rail rail_electric rail_fast ship cable_car subway" speed="13.89" length="87.54" shape="14507.72,17165.71 14520.64,17235.84 14521.67,17241.45 14523.22,17249.87 14523.58,17251.80"/>
    </edge>
    <edge id="225249129#0" from="256201389" to="3588475451" priority="6" type="highway.tertiary">
        <lane id="225249129#0_0" index="0" disallow="tram rail_urban rail rail_electric rail_fast ship cable_car subway" speed="8.33" length="12.65" shape="14504.11,17263.27 14516.28,17259.82"/>
    </edge>
    <edge id="225249129#1" from="3588475451" to="652791048" priority="6" type="highway.tertiary">
        <lane id="225249129#1_0" index="0" disallow="tram rail_urban rail rail_electric rail_fast ship cable_car subway" speed="8.33" length="60.64" shape="14530.16,17255.90 14588.51,17239.39"/>
    </edge>
    <edge id="23648008#2" from="3302422976" to="256201389" priority="6" type="highway.tertiary" shape="14312.27,17309.06 14432.02,17281.72 14498.06,17266.64">
        <lane id="23648008#2_0" index="0" disallow="tram rail_urban rail rail_electric rail_fast ship cable_car subway" speed="13.89" length="183.02" shape="14311.91,17307.50 14431.66,17280.16 14490.34,17266.76"/>
    </edge>
    <edge id="24487264" from="256201389" to="266574870" priority="4" type="highway.residential">
        <lane id="24487264_0" index="0" disallow="tram rail_urban rail rail_electric rail_fast ship cable_car subway" speed="13.89" length="166.35" shape="14500.56,17273.94 14520.62,17439.08"/>
    </edge>
    <edge id="323416262" from="3588475451" to="3302156369" priority="4" type="highway.residential" shape="14523.37,17259.48 14521.65,17250.16 14520.10,17241.74 14519.07,17236.13 14506.15,17166.00">
        <lane id="323416262_0" index="0" disallow="tram rail_urban rail rail_electric rail_fast ship cable_car subway" speed="13.89" length="87.54" shape="14520.43,17252.38 14520.08,17250.45 14518.53,17242.03 14517.50,17236.42 14504.58,17166.29"/>
    </edge>

    <tlLogic id="256201389" type="static" programID="0" offset="0">
        <phase duration="38" state="rrrGGgGgg"/>
        <phase duration="3"  state="rrryygygg"/>
        <phase duration="6"  state="rrrrrGrGG"/>
        <phase duration="3"  state="rrrrryryy"/>
        <phase duration="37" state="GGgGrrrrr"/>
        <phase duration="3"  state="yyyyrrrrr"/>
    </tlLogic>

    <junction id="256201389" type="traffic_light" x="14498.06" y="17266.64" incLanes="-24487264_0 -225249129#0_0 23648008#2_0" intLanes=":256201389_0_0 :256201389_1_0 :256201389_9_0 :256201389_3_0 :256201389_4_0 :256201389_10_0 :256201389_6_0 :256201389_11_0 :256201389_12_0" shape="14495.79,17274.52 14502.15,17273.75 14505.42,17267.88 14503.67,17261.73 14489.99,17265.20 14491.41,17271.44">
        <request index="0" response="000010000" foes="100010000" cont="0"/>
        <request index="1" response="011010000" foes="011110000" cont="0"/>
        <request index="2" response="010001000" foes="010001000" cont="1"/>
        <request index="3" response="000000000" foes="010000100" cont="0"/>
        <request index="4" response="000000000" foes="110000011" cont="0"/>
        <request index="5" response="001000010" foes="001000010" cont="1"/>
        <request index="6" response="000000000" foes="000100010" cont="0"/>
        <request index="7" response="000011000" foes="000011110" cont="1"/>
        <request index="8" response="000010001" foes="000010001" cont="1"/>
    </junction>
    <junction id="266574870" type="priority" x="14519.03" y="17439.27" incLanes="24487264_0" intLanes=":266574870_0_0" shape="14519.03,17439.27 14522.21,17438.88 14519.03,17439.27">
        <request index="0" response="0" foes="0" cont="0"/>
    </junction>
    <junction id="3302156369" type="priority" x="14506.15" y="17166.00" incLanes="323416262_0" intLanes=":3302156369_0_0" shape="14506.15,17166.00 14503.00,17166.58 14506.15,17166.00">
        <request index="0" response="0" foes="0" cont="0"/>
    </junction>
    <junction id="3302422976" type="priority" x="14312.27" y="17309.06" incLanes="-23648008#3_0" intLanes=":3302422976_0_0" shape="14312.27,17309.06 14312.98,17312.18 14312.27,17309.06">
        <request index="0" response="0" foes="0" cont="0"/>
    </junction>
    <junction id="3588475451" type="priority" x="14523.37" y="17259.48" incLanes="-225249129#1_0 -353069169#0_0 225249129#0_0" intLanes=":3588475451_0_0 :3588475451_9_0 :3588475451_10_0 :3588475451_3_0 :3588475451_4_0 :3588475451_5_0 :3588475451_6_0 :3588475451_7_0 :3588475451_11_0" shape="14531.47,17260.51 14529.73,17254.36 14525.15,17251.51 14518.86,17252.67 14515.85,17258.28 14517.59,17264.44">
        <request index="0" response="000000000" foes="100010000" cont="0"/>
        <request index="1" response="011000000" foes="011110000" cont="1"/>
        <request index="2" response="010001000" foes="010001000" cont="1"/>
        <request index="3" response="010000000" foes="010000100" cont="0"/>
        <request index="4" response="010000011" foes="110000011" cont="0"/>
        <request index="5" response="001000010" foes="001000010" cont="0"/>
        <request index="6" response="000000000" foes="000100010" cont="0"/>
        <request index="7" response="000000000" foes="000011110" cont="0"/>
        <request index="8" response="000010001" foes="000010001" cont="1"/>
    </junction>
    <junction id="652791048" type="priority" x="14588.95" y="17240.93" incLanes="225249129#1_0" intLanes=":652791048_0_0" shape="14588.95,17240.93 14588.08,17237.85 14588.95,17240.93">
        <request index="0" response="0" foes="0" cont="0"/>
    </junction>

    <junction id=":256201389_9_0" type="internal" x="14498.03" y="17273.04" incLanes=":256201389_2_0 -225249129#0_0 23648008#2_0" intLanes=":256201389_3_0 :256201389_7_0"/>
    <junction id=":256201389_10_0" type="internal" x="14503.61" y="17265.90" incLanes=":256201389_5_0 -24487264_0 23648008#2_0" intLanes=":256201389_1_0 :256201389_6_0"/>
    <junction id=":256201389_11_0" type="internal" x="14494.39" y="17266.43" incLanes=":256201389_7_0 -225249129#0_0" intLanes=":256201389_1_0 :256201389_2_0 :256201389_3_0 :256201389_4_0"/>
    <junction id=":256201389_12_0" type="internal" x="14491.69" y="17267.27" incLanes=":256201389_8_0 -225249129#0_0 -24487264_0" intLanes=":256201389_0_0 :256201389_4_0"/>
    <junction id=":3588475451_9_0" type="internal" x="14526.93" y="17259.48" incLanes=":3588475451_1_0 225249129#0_0" intLanes=":3588475451_4_0 :3588475451_5_0 :3588475451_6_0 :3588475451_7_0"/>
    <junction id=":3588475451_10_0" type="internal" x="14529.66" y="17258.53" incLanes=":3588475451_2_0 -353069169#0_0 225249129#0_0" intLanes=":3588475451_3_0 :3588475451_7_0"/>
    <junction id=":3588475451_11_0" type="internal" x="14517.65" y="17260.27" incLanes=":3588475451_8_0 -225249129#1_0 -353069169#0_0" intLanes=":3588475451_0_0 :3588475451_4_0"/>

    <connection from="-225249129#0" to="24487264" fromLane="0" toLane="0" via=":256201389_3_0" tl="256201389" linkIndex="3" dir="r" state="O"/>
    <connection from="-225249129#0" to="-23648008#3" fromLane="0" toLane="0" via=":256201389_4_0" tl="256201389" linkIndex="4" dir="s" state="O"/>
    <connection from="-225249129#0" to="225249129#0" fromLane="0" toLane="0" via=":256201389_5_0" tl="256201389" linkIndex="5" dir="t" state="o"/>
    <connection from="-225249129#1" to="-225249129#0" fromLane="0" toLane="0" via=":3588475451_0_0" dir="s" state="M"/>
    <connection from="-225249129#1" to="323416262" fromLane="0" toLane="0" via=":3588475451_1_0" dir="l" state="m"/>
    <connection from="-225249129#1" to="225249129#1" fromLane="0" toLane="0" via=":3588475451_2_0" dir="t" state="m"/>
    <connection from="-23648008#3" to="23648008#2" fromLane="0" toLane="0" via=":3302422976_0_0" dir="t" state="M"/>
    <connection from="-24487264" to="-23648008#3" fromLane="0" toLane="0" via=":256201389_0_0" tl="256201389" linkIndex="0" dir="r" state="o"/>
    <connection from="-24487264" to="225249129#0" fromLane="0" toLane="0" via=":256201389_1_0" tl="256201389" linkIndex="1" dir="l" state="o"/>
    <connection from="-24487264" to="24487264" fromLane="0" toLane="0" via=":256201389_2_0" tl="256201389" linkIndex="2" dir="t" state="o"/>
    <connection from="-353069169#0" to="225249129#1" fromLane="0" toLane="0" via=":3588475451_3_0" dir="r" state="m"/>
    <connection from="-353069169#0" to="-225249129#0" fromLane="0" toLane="0" via=":3588475451_4_0" dir="l" state="m"/>
    <connection from="-353069169#0" to="323416262" fromLane="0" toLane="0" via=":3588475451_5_0" dir="t" state="m"/>
    <connection from="225249129#0" to="323416262" fromLane="0" toLane="0" via=":3588475451_6_0" dir="r" state="M"/>
    <connection from="225249129#0" to="225249129#1" fromLane="0" toLane="0" via=":3588475451_7_0" dir="s" state="M"/>
    <connection from="225249129#0" to="-225249129#0" fromLane="0" toLane="0" via=":3588475451_8_0" dir="t" state="m"/>
    <connection from="225249129#1" to="-225249129#1" fromLane="0" toLane="0" via=":652791048_0_0" dir="t" state="M"/>
    <connection from="23648008#2" to="225249129#0" fromLane="0" toLane="0" via=":256201389_6_0" tl="256201389" linkIndex="6" dir="s" state="O"/>
    <connection from="23648008#2" to="24487264" fromLane="0" toLane="0" via=":256201389_7_0" tl="256201389" linkIndex="7" dir="l" state="o"/>
    <connection from="23648008#2" to="-23648008#3" fromLane="0" toLane="0" via=":256201389_8_0" tl="256201389" linkIndex="8" dir="t" state="o"/>
    <connection from="24487264" to="-24487264" fromLane="0" toLane="0" via=":266574870_0_0" dir="t" state="M"/>
    <connection from="323416262" to="-353069169#0" fromLane="0" toLane="0" via=":3302156369_0_0" dir="t" state="M"/>

    <connection from=":256201389_0" to="-23648008#3" fromLane="0" toLane="0" dir="r" state="M"/>
    <connection from=":256201389_1" to="225249129#0" fromLane="0" toLane="0" dir="l" state="M"/>
    <connection from=":256201389_2" to="24487264" fromLane="0" toLane="0" via=":256201389_9_0" dir="t" state="m"/>
    <connection from=":256201389_9" to="24487264" fromLane="0" toLane="0" dir="t" state="M"/>
    <connection from=":256201389_3" to="24487264" fromLane="0" toLane="0" dir="r" state="M"/>
    <connection from=":256201389_4" to="-23648008#3" fromLane="0" toLane="0" dir="s" state="M"/>
    <connection from=":256201389_5" to="225249129#0" fromLane="0" toLane="0" via=":256201389_10_0" dir="t" state="m"/>
    <connection from=":256201389_10" to="225249129#0" fromLane="0" toLane="0" dir="t" state="M"/>
    <connection from=":256201389_6" to="225249129#0" fromLane="0" toLane="0" dir="s" state="M"/>
    <connection from=":256201389_7" to="24487264" fromLane="0" toLane="0" via=":256201389_11_0" dir="l" state="m"/>
    <connection from=":256201389_11" to="24487264" fromLane="0" toLane="0" dir="l" state="M"/>
    <connection from=":256201389_8" to="-23648008#3" fromLane="0" toLane="0" via=":256201389_12_0" dir="t" state="m"/>
    <connection from=":256201389_12" to="-23648008#3" fromLane="0" toLane="0" dir="t" state="M"/>
    <connection from=":266574870_0" to="-24487264" fromLane="0" toLane="0" dir="t" state="M"/>
    <connection from=":3302156369_0" to="-353069169#0" fromLane="0" toLane="0" dir="t" state="M"/>
    <connection from=":3302422976_0" to="23648008#2" fromLane="0" toLane="0" dir="t" state="M"/>
    <connection from=":3588475451_0" to="-225249129#0" fromLane="0" toLane="0" dir="s" state="M"/>
    <connection from=":3588475451_1" to="323416262" fromLane="0" toLane="0" via=":3588475451_9_0" dir="l" state="m"/>
    <connection from=":3588475451_9" to="323416262" fromLane="0" toLane="0" dir="l" state="M"/>
    <connection from=":3588475451_2" to="225249129#1" fromLane="0" toLane="0" via=":3588475451_10_0" dir="t" state="m"/>
    <connection from=":3588475451_10" to="225249129#1" fromLane="0" toLane="0" dir="t" state="M"/>
    <connection from=":3588475451_3" to="225249129#1" fromLane="0" toLane="0" dir="r" state="M"/>
    <connection from=":3588475451_4" to="-225249129#0" fromLane="0" toLane="0" dir="l" state="M"/>
    <connection from=":3588475451_5" to="323416262" fromLane="0" toLane="0" dir="t" state="M"/>
    <connection from=":3588475451_6" to="323416262" fromLane="0" toLane="0" dir="r" state="M"/>
    <connection from=":3588475451_7" to="225249129#1" fromLane="0" toLane="0" dir="s" state="M"/>
    <connection from=":3588475451_8" to="-225249129#0" fromLane="0" toLane="0" via=":3588475451_11_0" dir="t" state="m"/>
    <connection from=":3588475451_11" to="-225249129#0" fromLane="0" toLane="0" dir="t" state="M"/>
    <connection from=":652791048_0" to="-225249129#1" fromLane="0" toLane="0" dir="t" state="M"/>

</net>
