<?xml version="1.0" encoding="UTF-8"?>

<!-- generated on 2025-03-01 18:22:45 by Eclipse SUMO netedit Version 1.20.0
<configuration xmlns:xsi="http://www.w3.org/2001/XMLSchema-instance" xsi:noNamespaceSchemaLocation="http://sumo.dlr.de/xsd/neteditConfiguration.xsd">

    <input>
        <sumo-net-file value="/Users/rohitbokade/Desktop/cologne/cologne_7.net.xml"/>
    </input>

    <output>
        <output-file value="/Users/rohitbokade/Desktop/cologne/cologne_7.net.xml"/>
    </output>

    <processing>
        <geometry.min-radius.fix.railways value="false"/>
        <geometry.max-grade.fix value="false"/>
        <offset.disable-normalization value="true"/>
        <lefthand value="0"/>
    </processing>

    <junctions>
        <no-turnarounds value="true"/>
        <junctions.corner-detail value="0"/>
        <junctions.limit-turn-speed value="-1.00"/>
        <rectangular-lane-cut value="0"/>
    </junctions>

    <pedestrian>
        <walkingareas value="0"/>
    </pedestrian>

</configuration>
-->

<net version="1.20" xmlns:xsi="http://www.w3.org/2001/XMLSchema-instance" xsi:noNamespaceSchemaLocation="http://sumo.dlr.de/xsd/net_file.xsd">

    <location netOffset="-342498.65,-5630866.92" convBoundary="14101.37,17014.45,14184.47,17335.59" origBoundary="6.166558,50.735925,7.295276,51.840721" projParameter="+proj=utm +zone=32 +ellps=WGS84 +datum=WGS84 +units=m +no_defs"/>

    <type id="highway.tertiary" priority="6" numLanes="1" speed="13.89" disallow="tram rail_urban rail rail_electric ship" oneway="1"/>
    <type id="highway.unclassified" priority="5" numLanes="1" speed="13.89" disallow="tram rail_urban rail rail_electric ship" oneway="1"/>

    <edge id=":1679948681_0" function="internal">
        <lane id=":1679948681_0_0" index="0" disallow="tram rail_urban rail rail_electric rail_fast ship cable_car subway" speed="13.89" length="8.02" shape="14174.16,17237.30 14173.50,17229.30"/>
    </edge>
    <edge id=":1679948681_1" function="internal">
        <lane id=":1679948681_1_0" index="0" disallow="tram rail_urban rail rail_electric rail_fast ship cable_car subway" speed="13.89" length="1.44" shape="14174.16,17237.30 14174.85,17236.04"/>
    </edge>
    <edge id=":1679948681_5" function="internal">
        <lane id=":1679948681_5_0" index="0" disallow="tram rail_urban rail rail_electric rail_fast ship cable_car subway" speed="13.89" length="3.23" shape="14174.85,17236.04 14175.61,17235.57 14176.44,17235.89 14177.35,17237.02"/>
    </edge>
    <edge id=":1679948681_2" function="internal">
        <lane id=":1679948681_2_0" index="0" disallow="tram rail_urban rail rail_electric rail_fast ship cable_car subway" speed="13.89" length="8.37" shape="14176.70,17229.07 14177.38,17231.47 14178.59,17232.90 14179.82,17234.34 14180.53,17236.74"/>
        <lane id=":1679948681_2_1" index="1" disallow="tram rail_urban rail rail_electric rail_fast ship cable_car subway" speed="13.89" length="8.37" shape="14176.70,17229.07 14177.35,17237.02"/>
    </edge>
    <edge id=":1679948681_4" function="internal">
        <lane id=":1679948681_4_0" index="0" disallow="tram rail_urban rail rail_electric rail_fast ship cable_car subway" speed="13.89" length="1.44" shape="14176.70,17229.07 14175.99,17230.32"/>
    </edge>
    <edge id=":1679948681_6" function="internal">
        <lane id=":1679948681_6_0" index="0" disallow="tram rail_urban rail rail_electric rail_fast ship cable_car subway" speed="13.89" length="3.23" shape="14175.99,17230.32 14175.22,17230.78 14174.39,17230.44 14173.50,17229.30"/>
    </edge>
    <edge id=":256189978_0" function="internal">
        <lane id=":256189978_0_0" index="0" disallow="tram rail_urban rail rail_electric rail_fast ship cable_car subway" speed="13.89" length="4.67" shape="14154.63,17014.59 14155.32,17013.33 14156.08,17012.86 14156.91,17013.18 14157.81,17014.31"/>
    </edge>
    <edge id=":256190118_0" function="internal">
        <lane id=":256190118_0_0" index="0" disallow="tram rail_urban rail rail_electric rail_fast ship cable_car subway" speed="8.33" length="4.67" shape="14101.55,17203.06 14100.27,17202.40 14099.78,17201.65 14100.09,17200.81 14101.19,17199.88"/>
    </edge>
    <edge id=":280120513_0" function="internal">
        <lane id=":280120513_0_0" index="0" disallow="tram rail_urban rail rail_electric rail_fast ship cable_car subway" speed="13.89" length="4.67" shape="14186.06,17335.45 14185.37,17336.71 14184.61,17337.18 14183.78,17336.86 14182.88,17335.73"/>
    </edge>
    <edge id=":3008854750_0" function="internal">
        <lane id=":3008854750_0_0" index="0" disallow="tram rail_urban rail rail_electric rail_fast ship cable_car subway" speed="13.89" length="8.00" shape="14163.57,17113.36 14162.85,17105.39"/>
    </edge>
    <edge id=":3008854750_1" function="internal">
        <lane id=":3008854750_1_0" index="0" disallow="tram rail_urban rail rail_electric rail_fast ship cable_car subway" speed="13.89" length="1.44" shape="14163.57,17113.36 14164.26,17112.09"/>
    </edge>
    <edge id=":3008854750_5" function="internal">
        <lane id=":3008854750_5_0" index="0" disallow="tram rail_urban rail rail_electric rail_fast ship cable_car subway" speed="13.89" length="3.23" shape="14164.26,17112.09 14165.02,17111.62 14165.85,17111.95 14166.75,17113.07"/>
    </edge>
    <edge id=":3008854750_2" function="internal">
        <lane id=":3008854750_2_0" index="0" disallow="tram rail_urban rail rail_electric rail_fast ship cable_car subway" speed="13.89" length="8.40" shape="14166.03,17105.10 14166.75,17107.51 14167.99,17108.94 14169.22,17110.37 14169.94,17112.78"/>
        <lane id=":3008854750_2_1" index="1" disallow="tram rail_urban rail rail_electric rail_fast ship cable_car subway" speed="13.89" length="8.40" shape="14166.03,17105.10 14166.75,17113.07"/>
    </edge>
    <edge id=":3008854750_4" function="internal">
        <lane id=":3008854750_4_0" index="0" disallow="tram rail_urban rail rail_electric rail_fast ship cable_car subway" speed="13.89" length="1.44" shape="14166.03,17105.10 14165.34,17106.37"/>
    </edge>
    <edge id=":3008854750_6" function="internal">
        <lane id=":3008854750_6_0" index="0" disallow="tram rail_urban rail rail_electric rail_fast ship cable_car subway" speed="13.89" length="3.23" shape="14165.34,17106.37 14164.58,17106.84 14163.75,17106.51 14162.85,17105.39"/>
    </edge>
    <edge id=":62426694_0" function="internal">
        <lane id=":62426694_0_0" index="0" disallow="tram rail_urban rail rail_electric rail_fast ship cable_car subway" speed="11.11" length="9.03" shape="14171.37,17200.86 14170.84,17198.43 14169.65,17196.79 14167.81,17195.93 14165.32,17195.85"/>
    </edge>
    <edge id=":62426694_1" function="internal">
        <lane id=":62426694_1_0" index="0" disallow="tram rail_urban rail rail_electric rail_fast ship cable_car subway" speed="13.89" length="14.43" shape="14171.37,17200.86 14170.18,17186.48"/>
    </edge>
    <edge id=":62426694_2" function="internal">
        <lane id=":62426694_2_0" index="0" disallow="tram rail_urban rail rail_electric rail_fast ship cable_car subway" speed="13.89" length="1.44" shape="14171.37,17200.86 14172.08,17199.61"/>
    </edge>
    <edge id=":62426694_9" function="internal">
        <lane id=":62426694_9_0" index="0" disallow="tram rail_urban rail rail_electric rail_fast ship cable_car subway" speed="13.89" length="3.23" shape="14172.08,17199.61 14172.85,17199.15 14173.68,17199.49 14174.56,17200.62"/>
    </edge>
    <edge id=":62426694_3" function="internal">
        <lane id=":62426694_3_0" index="0" disallow="tram rail_urban rail rail_electric rail_fast ship cable_car subway" speed="13.89" length="14.93" shape="14176.56,17185.91 14176.48,17190.63 14175.67,17194.17 14174.81,17197.26 14174.56,17200.62"/>
    </edge>
    <edge id=":62426694_4" function="internal">
        <lane id=":62426694_4_0" index="0" disallow="tram rail_urban rail rail_electric rail_fast ship cable_car subway" speed="11.11" length="4.08" shape="14173.37,17186.20 14173.16,17190.05 14173.06,17190.25"/>
    </edge>
    <edge id=":62426694_5" function="internal">
        <lane id=":62426694_5_0" index="0" disallow="tram rail_urban rail rail_electric rail_fast ship cable_car subway" speed="13.89" length="1.44" shape="14173.37,17186.20 14172.68,17187.46"/>
    </edge>
    <edge id=":62426694_10" function="internal">
        <lane id=":62426694_10_0" index="0" disallow="tram rail_urban rail rail_electric rail_fast ship cable_car subway" speed="11.11" length="10.18" shape="14173.06,17190.25 14171.75,17192.94 14169.14,17194.87 14165.32,17195.85"/>
    </edge>
    <edge id=":62426694_11" function="internal">
        <lane id=":62426694_11_0" index="0" disallow="tram rail_urban rail rail_electric rail_fast ship cable_car subway" speed="13.89" length="3.23" shape="14172.68,17187.46 14171.92,17187.93 14171.09,17187.61 14170.18,17186.48"/>
    </edge>
    <edge id=":62426694_6" function="internal">
        <lane id=":62426694_6_0" index="0" disallow="tram rail_urban rail rail_electric rail_fast ship cable_car subway" speed="11.11" length="9.19" shape="14164.96,17192.67 14167.44,17192.04 14169.13,17190.80 14170.05,17188.95 14170.18,17186.48"/>
    </edge>
    <edge id=":62426694_7" function="internal">
        <lane id=":62426694_7_0" index="0" disallow="tram rail_urban rail rail_electric rail_fast ship cable_car subway" speed="11.11" length="14.34" shape="14164.96,17192.67 14168.91,17192.79 14171.83,17194.16 14173.71,17196.77 14174.56,17200.62"/>
    </edge>
    <edge id=":62426694_8" function="internal">
        <lane id=":62426694_8_0" index="0" disallow="tram rail_urban rail rail_electric rail_fast ship cable_car subway" speed="8.33" length="1.44" shape="14164.96,17192.67 14166.25,17193.33"/>
    </edge>
    <edge id=":62426694_12" function="internal">
        <lane id=":62426694_12_0" index="0" disallow="tram rail_urban rail rail_electric rail_fast ship cable_car subway" speed="8.33" length="3.23" shape="14166.25,17193.33 14166.73,17194.08 14166.43,17194.92 14165.32,17195.85"/>
    </edge>

    <edge id="-28675493" from="1679948681" to="280120513" priority="6" type="highway.tertiary">
        <lane id="-28675493_0" index="0" disallow="tram rail_urban rail rail_electric rail_fast ship cable_car subway" speed="13.89" length="98.82" shape="14180.53,17236.74 14189.25,17335.17"/>
        <lane id="-28675493_1" index="1" disallow="tram rail_urban rail rail_electric rail_fast ship cable_car subway" speed="13.89" length="98.82" shape="14177.35,17237.02 14186.06,17335.45"/>
    </edge>
    <edge id="-28675494#1" from="3008854750" to="62426694" priority="6" type="highway.tertiary" shape="14164.80,17109.23 14171.44,17182.60 14172.42,17193.44">
        <lane id="-28675494#1_0" index="0" disallow="tram rail_urban rail rail_electric rail_fast ship cable_car subway" speed="13.89" length="73.43" shape="14169.94,17112.78 14176.22,17182.17 14176.56,17185.91"/>
        <lane id="-28675494#1_1" index="1" disallow="tram rail_urban rail rail_electric rail_fast ship cable_car subway" speed="13.89" length="73.43" shape="14166.75,17113.07 14173.03,17182.46 14173.37,17186.20"/>
    </edge>
    <edge id="-297047308" from="62426694" to="1679948681" priority="6" type="highway.tertiary">
        <lane id="-297047308_0" index="0" disallow="tram rail_urban rail rail_electric rail_fast ship cable_car subway" speed="13.89" length="28.52" shape="14174.56,17200.62 14176.70,17229.07"/>
    </edge>
    <edge id="-297047309#0" from="256189978" to="3008854750" priority="6" type="highway.tertiary">
        <lane id="-297047309#0_0" index="0" disallow="tram rail_urban rail rail_electric rail_fast ship cable_car subway" speed="13.89" length="91.17" shape="14157.81,17014.31 14166.03,17105.10"/>
    </edge>
    <edge id="-8716807#6" from="62426694" to="256190118" priority="5" type="highway.unclassified">
        <lane id="-8716807#6_0" index="0" disallow="tram rail_urban rail rail_electric rail_fast ship cable_car subway" speed="8.33" length="64.18" shape="14165.32,17195.85 14101.55,17203.06"/>
    </edge>
    <edge id="28675493" from="280120513" to="1679948681" priority="6" type="highway.tertiary">
        <lane id="28675493_0" index="0" disallow="tram rail_urban rail rail_electric rail_fast ship cable_car subway" speed="13.89" length="98.82" shape="14182.88,17335.73 14174.16,17237.30"/>
    </edge>
    <edge id="28675494#0" from="62426694" to="3008854750" priority="6" type="highway.tertiary" shape="14172.42,17193.44 14171.44,17182.60 14164.80,17109.23">
        <lane id="28675494#0_0" index="0" disallow="tram rail_urban rail rail_electric rail_fast ship cable_car subway" speed="13.89" length="73.42" shape="14170.18,17186.48 14169.85,17182.74 14163.57,17113.36"/>
    </edge>
    <edge id="297047308" from="1679948681" to="62426694" priority="6" type="highway.tertiary">
        <lane id="297047308_0" index="0" disallow="tram rail_urban rail rail_electric rail_fast ship cable_car subway" speed="13.89" length="28.52" shape="14173.50,17229.30 14171.37,17200.86"/>
    </edge>
    <edge id="297047309#0" from="3008854750" to="256189978" priority="6" type="highway.tertiary">
        <lane id="297047309#0_0" index="0" disallow="tram rail_urban rail rail_electric rail_fast ship cable_car subway" speed="13.89" length="91.17" shape="14162.85,17105.39 14154.63,17014.59"/>
    </edge>
    <edge id="8716807#6" from="256190118" to="62426694" priority="5" type="highway.unclassified">
        <lane id="8716807#6_0" index="0" disallow="tram rail_urban rail rail_electric rail_fast ship cable_car subway" speed="8.33" length="64.18" shape="14101.19,17199.88 14164.96,17192.67"/>
    </edge>

    <tlLogic id="62426694" type="static" programID="0" offset="0">
        <phase duration="38" state="GGgGggrrr"/>
        <phase duration="3"  state="yygyggrrr"/>
        <phase duration="6"  state="rrGrGGrrr"/>
        <phase duration="3"  state="rryryyrrr"/>
        <phase duration="37" state="GrrrrrGGg"/>
        <phase duration="3"  state="yrrrrryyy"/>
    </tlLogic>

    <junction id="1679948681" type="priority" x="14175.40" y="17233.18" incLanes="28675493_0 -297047308_0" intLanes=":1679948681_0_0 :1679948681_5_0 :1679948681_2_0 :1679948681_2_1 :1679948681_6_0" shape="14172.56,17237.44 14182.13,17236.60 14178.29,17228.95 14171.91,17229.42">
        <request index="0" response="00000" foes="10000" cont="0"/>
        <request index="1" response="01100" foes="01100" cont="1"/>
        <request index="2" response="00000" foes="00010" cont="0"/>
        <request index="3" response="00000" foes="00010" cont="0"/>
        <request index="4" response="00001" foes="00001" cont="1"/>
    </junction>
    <junction id="256189978" type="priority" x="14156.22" y="17014.45" incLanes="297047309#0_0" intLanes=":256189978_0_0" shape="14156.22,17014.45 14153.03,17014.74 14156.22,17014.45">
        <request index="0" response="0" foes="0" cont="0"/>
    </junction>
    <junction id="256190118" type="priority" x="14101.37" y="17201.47" incLanes="-8716807#6_0" intLanes=":256190118_0_0" shape="14101.37,17201.47 14101.73,17204.65 14101.37,17201.47">
        <request index="0" response="0" foes="0" cont="0"/>
    </junction>
    <junction id="280120513" type="priority" x="14184.47" y="17335.59" incLanes="-28675493_0 -28675493_1" intLanes=":280120513_0_0" shape="14184.47,17335.59 14190.85,17335.03 14184.47,17335.59">
        <request index="0" response="0" foes="0" cont="0"/>
    </junction>
    <junction id="3008854750" type="priority" x="14164.80" y="17109.23" incLanes="28675494#0_0 -297047309#0_0" intLanes=":3008854750_0_0 :3008854750_5_0 :3008854750_2_0 :3008854750_2_1 :3008854750_6_0" shape="14161.97,17113.50 14171.53,17112.64 14167.63,17104.96 14161.25,17105.53">
        <request index="0" response="00000" foes="10000" cont="0"/>
        <request index="1" response="01100" foes="01100" cont="1"/>
        <request index="2" response="00000" foes="00010" cont="0"/>
        <request index="3" response="00000" foes="00010" cont="0"/>
        <request index="4" response="00001" foes="00001" cont="1"/>
    </junction>
    <junction id="62426694" type="traffic_light" x="14172.42" y="17193.44" incLanes="297047308_0 -28675494#1_0 -28675494#1_1 8716807#6_0" intLanes=":62426694_0_0 :62426694_1_0 :62426694_9_0 :62426694_3_0 :62426694_10_0 :62426694_11_0 :62426694_6_0 :62426694_7_0 :62426694_12_0" shape="14169.78,17200.98 14176.16,17200.50 14178.15,17185.76 14168.59,17186.63 14164.78,17191.08 14165.50,17197.44">
        <request index="0" response="000000000" foes="100010000" cont="0"/>
        <request index="1" response="000000000" foes="011110000" cont="0"/>
        <request index="2" response="010001000" foes="010001000" cont="1"/>
        <request index="3" response="000000000" foes="010000100" cont="0"/>
        <request index="4" response="000000011" foes="110000011" cont="1"/>
        <request index="5" response="001000010" foes="001000010" cont="1"/>
        <request index="6" response="000000010" foes="000100010" cont="0"/>
        <request index="7" response="000011010" foes="000011110" cont="0"/>
        <request index="8" response="000010001" foes="000010001" cont="1"/>
    </junction>

    <junction id=":1679948681_5_0" type="internal" x="14174.85" y="17236.04" incLanes=":1679948681_1_0 -297047308_0" intLanes=":1679948681_2_0 :1679948681_2_1"/>
    <junction id=":1679948681_6_0" type="internal" x="14175.99" y="17230.32" incLanes=":1679948681_4_0 28675493_0" intLanes=":1679948681_0_0"/>
    <junction id=":3008854750_5_0" type="internal" x="14164.26" y="17112.09" incLanes=":3008854750_1_0 -297047309#0_0" intLanes=":3008854750_2_0 :3008854750_2_1"/>
    <junction id=":3008854750_6_0" type="internal" x="14165.34" y="17106.37" incLanes=":3008854750_4_0 28675494#0_0" intLanes=":3008854750_0_0"/>
    <junction id=":62426694_9_0" type="internal" x="14172.08" y="17199.61" incLanes=":62426694_2_0 -28675494#1_0 8716807#6_0" intLanes=":62426694_3_0 :62426694_7_0"/>
    <junction id=":62426694_10_0" type="internal" x="14173.06" y="17190.25" incLanes=":62426694_4_0 297047308_0" intLanes=":62426694_0_0 :62426694_1_0 :62426694_7_0 :62426694_8_0"/>
    <junction id=":62426694_11_0" type="internal" x="14172.68" y="17187.46" incLanes=":62426694_5_0 297047308_0 8716807#6_0" intLanes=":62426694_1_0 :62426694_6_0"/>
    <junction id=":62426694_12_0" type="internal" x="14166.25" y="17193.33" incLanes=":62426694_8_0 -28675494#1_1 297047308_0" intLanes=":62426694_0_0 :62426694_4_0"/>

    <connection from="-28675493" to="28675493" fromLane="1" toLane="0" via=":280120513_0_0" dir="t" state="M"/>
    <connection from="-28675494#1" to="-297047308" fromLane="0" toLane="0" via=":62426694_3_0" tl="62426694" linkIndex="3" dir="s" state="O"/>
    <connection from="-28675494#1" to="-8716807#6" fromLane="1" toLane="0" via=":62426694_4_0" tl="62426694" linkIndex="4" dir="l" state="o"/>
    <connection from="-28675494#1" to="28675494#0" fromLane="1" toLane="0" via=":62426694_5_0" tl="62426694" linkIndex="5" dir="t" state="o"/>
    <connection from="-297047308" to="-28675493" fromLane="0" toLane="0" via=":1679948681_2_0" dir="s" state="M"/>
    <connection from="-297047308" to="-28675493" fromLane="0" toLane="1" via=":1679948681_2_1" dir="s" state="M"/>
    <connection from="-297047308" to="297047308" fromLane="0" toLane="0" via=":1679948681_4_0" dir="t" state="m"/>
    <connection from="-297047309#0" to="-28675494#1" fromLane="0" toLane="0" via=":3008854750_2_0" dir="s" state="M"/>
    <connection from="-297047309#0" to="-28675494#1" fromLane="0" toLane="1" via=":3008854750_2_1" dir="s" state="M"/>
    <connection from="-297047309#0" to="297047309#0" fromLane="0" toLane="0" via=":3008854750_4_0" dir="t" state="m"/>
    <connection from="-8716807#6" to="8716807#6" fromLane="0" toLane="0" via=":256190118_0_0" dir="t" state="M"/>
    <connection from="28675493" to="297047308" fromLane="0" toLane="0" via=":1679948681_0_0" dir="s" state="M"/>
    <connection from="28675493" to="-28675493" fromLane="0" toLane="1" via=":1679948681_1_0" dir="t" state="m"/>
    <connection from="28675494#0" to="297047309#0" fromLane="0" toLane="0" via=":3008854750_0_0" dir="s" state="M"/>
    <connection from="28675494#0" to="-28675494#1" fromLane="0" toLane="1" via=":3008854750_1_0" dir="t" state="m"/>
    <connection from="297047308" to="-8716807#6" fromLane="0" toLane="0" via=":62426694_0_0" tl="62426694" linkIndex="0" dir="r" state="O"/>
    <connection from="297047308" to="28675494#0" fromLane="0" toLane="0" via=":62426694_1_0" tl="62426694" linkIndex="1" dir="s" state="O"/>
    <connection from="297047308" to="-297047308" fromLane="0" toLane="0" via=":62426694_2_0" tl="62426694" linkIndex="2" dir="t" state="o"/>
    <connection from="297047309#0" to="-297047309#0" fromLane="0" toLane="0" via=":256189978_0_0" dir="t" state="M"/>
    <connection from="8716807#6" to="28675494#0" fromLane="0" toLane="0" via=":62426694_6_0" tl="62426694" linkIndex="6" dir="r" state="o"/>
    <connection from="8716807#6" to="-297047308" fromLane="0" toLane="0" via=":62426694_7_0" tl="62426694" linkIndex="7" dir="l" state="o"/>
    <connection from="8716807#6" to="-8716807#6" fromLane="0" toLane="0" via=":62426694_8_0" tl="62426694" linkIndex="8" dir="t" state="o"/>

    <connection from=":1679948681_0" to="297047308" fromLane="0" toLane="0" dir="s" state="M"/>
    <connection from=":1679948681_1" to="-28675493" fromLane="0" toLane="1" via=":1679948681_5_0" dir="t" state="m"/>
    <connection from=":1679948681_5" to="-28675493" fromLane="0" toLane="1" dir="t" state="M"/>
    <connection from=":1679948681_2" to="-28675493" fromLane="0" toLane="0" dir="s" state="M"/>
    <connection from=":1679948681_2" to="-28675493" fromLane="1" toLane="1" dir="s" state="M"/>
    <connection from=":1679948681_4" to="297047308" fromLane="0" toLane="0" via=":1679948681_6_0" dir="t" state="m"/>
    <connection from=":1679948681_6" to="297047308" fromLane="0" toLane="0" dir="t" state="M"/>
    <connection from=":256189978_0" to="-297047309#0" fromLane="0" toLane="0" dir="t" state="M"/>
    <connection from=":256190118_0" to="8716807#6" fromLane="0" toLane="0" dir="t" state="M"/>
    <connection from=":280120513_0" to="28675493" fromLane="0" toLane="0" dir="t" state="M"/>
    <connection from=":3008854750_0" to="297047309#0" fromLane="0" toLane="0" dir="s" state="M"/>
    <connection from=":3008854750_1" to="-28675494#1" fromLane="0" toLane="1" via=":3008854750_5_0" dir="t" state="m"/>
    <connection from=":3008854750_5" to="-28675494#1" fromLane="0" toLane="1" dir="t" state="M"/>
    <connection from=":3008854750_2" to="-28675494#1" fromLane="0" toLane="0" dir="s" state="M"/>
    <connection from=":3008854750_2" to="-28675494#1" fromLane="1" toLane="1" dir="s" state="M"/>
    <connection from=":3008854750_4" to="297047309#0" fromLane="0" toLane="0" via=":3008854750_6_0" dir="t" state="m"/>
    <connection from=":3008854750_6" to="297047309#0" fromLane="0" toLane="0" dir="t" state="M"/>
    <connection from=":62426694_0" to="-8716807#6" fromLane="0" toLane="0" dir="r" state="M"/>
    <connection from=":62426694_1" to="28675494#0" fromLane="0" toLane="0" dir="s" state="M"/>
    <connection from=":62426694_2" to="-297047308" fromLane="0" toLane="0" via=":62426694_9_0" dir="t" state="m"/>
    <connection from=":62426694_9" to="-297047308" fromLane="0" toLane="0" dir="t" state="M"/>
    <connection from=":62426694_3" to="-297047308" fromLane="0" toLane="0" dir="s" state="M"/>
    <connection from=":62426694_4" to="-8716807#6" fromLane="0" toLane="0" via=":62426694_10_0" dir="l" state="m"/>
    <connection from=":62426694_10" to="-8716807#6" fromLane="0" toLane="0" dir="l" state="M"/>
    <connection from=":62426694_5" to="28675494#0" fromLane="0" toLane="0" via=":62426694_11_0" dir="t" state="m"/>
    <connection from=":62426694_11" to="28675494#0" fromLane="0" toLane="0" dir="t" state="M"/>
    <connection from=":62426694_6" to="28675494#0" fromLane="0" toLane="0" dir="r" state="M"/>
    <connection from=":62426694_7" to="-297047308" fromLane="0" toLane="0" dir="l" state="M"/>
    <connection from=":62426694_8" to="-8716807#6" fromLane="0" toLane="0" via=":62426694_12_0" dir="t" state="m"/>
    <connection from=":62426694_12" to="-8716807#6" fromLane="0" toLane="0" dir="t" state="M"/>

</net>
