<?xml version="1.0" encoding="UTF-8"?>

<!-- generated on 2025-03-01 18:26:32 by Eclipse SUMO netedit Version 1.20.0
<configuration xmlns:xsi="http://www.w3.org/2001/XMLSchema-instance" xsi:noNamespaceSchemaLocation="http://sumo.dlr.de/xsd/neteditConfiguration.xsd">

    <input>
        <sumo-net-file value="/Users/rohitbokade/Desktop/cologne/cologne_4.net.xml"/>
    </input>

    <output>
        <output-file value="/Users/rohitbokade/Desktop/cologne/cologne_4.net.xml"/>
    </output>

    <processing>
        <geometry.min-radius.fix.railways value="false"/>
        <geometry.max-grade.fix value="false"/>
        <offset.disable-normalization value="true"/>
        <lefthand value="0"/>
    </processing>

    <junctions>
        <no-turnarounds value="true"/>
        <junctions.corner-detail value="0"/>
        <junctions.limit-turn-speed value="-1.00"/>
        <rectangular-lane-cut value="0"/>
    </junctions>

    <pedestrian>
        <walkingareas value="0"/>
    </pedestrian>

</configuration>
-->

<net version="1.20" xmlns:xsi="http://www.w3.org/2001/XMLSchema-instance" xsi:noNamespaceSchemaLocation="http://sumo.dlr.de/xsd/net_file.xsd">

    <location netOffset="-342498.65,-5630866.92" convBoundary="13717.25,16999.70,13903.95,17496.85" origBoundary="6.166558,50.735925,7.295276,51.840721" projParameter="+proj=utm +zone=32 +ellps=WGS84 +datum=WGS84 +units=m +no_defs"/>

    <type id="highway.primary" priority="9" numLanes="2" speed="13.89" disallow="tram rail_urban rail rail_electric ship" oneway="1"/>
    <type id="highway.residential" priority="4" numLanes="1" speed="13.89" disallow="tram rail_urban rail rail_electric ship" oneway="1"/>
    <type id="highway.unclassified" priority="5" numLanes="1" speed="13.89" disallow="tram rail_urban rail rail_electric ship" oneway="1"/>

    <edge id=":252016271_0" function="internal">
        <lane id=":252016271_0_0" index="0" disallow="tram rail_urban rail rail_electric rail_fast ship cable_car subway" speed="13.89" length="0.28" shape="13800.13,17146.26 13800.10,17146.54"/>
    </edge>
    <edge id=":252016271_1" function="internal">
        <lane id=":252016271_1_0" index="0" disallow="tram rail_urban rail rail_electric rail_fast ship cable_car subway" speed="13.89" length="2.34" shape="13800.13,17146.26 13799.23,17147.39 13798.40,17147.72"/>
    </edge>
    <edge id=":252016271_4" function="internal">
        <lane id=":252016271_4_0" index="0" disallow="tram rail_urban rail rail_electric rail_fast ship cable_car subway" speed="13.89" length="2.34" shape="13798.40,17147.72 13797.63,17147.25 13796.94,17145.99"/>
    </edge>
    <edge id=":252016271_2" function="internal">
        <lane id=":252016271_2_0" index="0" disallow="tram rail_urban rail rail_electric rail_fast ship cable_car subway" speed="13.89" length="0.31" shape="13796.91,17146.30 13796.94,17145.99"/>
    </edge>
    <edge id=":252016271_3" function="internal">
        <lane id=":252016271_3_0" index="0" disallow="tram rail_urban rail rail_electric rail_fast ship cable_car subway" speed="13.89" length="2.34" shape="13796.91,17146.30 13797.80,17145.16 13798.63,17144.82"/>
    </edge>
    <edge id=":252016271_5" function="internal">
        <lane id=":252016271_5_0" index="0" disallow="tram rail_urban rail rail_electric rail_fast ship cable_car subway" speed="13.89" length="2.34" shape="13798.63,17144.82 13799.40,17145.28 13800.10,17146.54"/>
    </edge>
    <edge id=":252016274_0" function="internal">
        <lane id=":252016274_0_0" index="0" disallow="tram rail_urban rail rail_electric rail_fast ship cable_car subway" speed="8.33" length="4.67" shape="13903.71,17223.19 13905.01,17223.80 13905.53,17224.53 13905.26,17225.38 13904.19,17226.35"/>
    </edge>
    <edge id=":252017285_0" function="internal">
        <lane id=":252017285_0_0" index="0" disallow="tram rail_urban rail rail_electric rail_fast ship cable_car subway" speed="11.11" length="11.00" shape="13799.33,17242.47 13796.35,17243.29 13794.13,17244.72 13792.66,17246.76 13791.94,17249.42"/>
    </edge>
    <edge id=":252017285_1" function="internal">
        <lane id=":252017285_1_0" index="0" disallow="tram rail_urban rail rail_electric rail_fast ship cable_car subway" speed="11.11" length="15.66" shape="13799.33,17242.47 13795.51,17242.93 13791.53,17243.15 13787.56,17243.13 13783.72,17242.84"/>
    </edge>
    <edge id=":252017285_2" function="internal">
        <lane id=":252017285_2_0" index="0" disallow="tram rail_urban rail rail_electric rail_fast ship cable_car subway" speed="11.11" length="4.60" shape="13799.33,17242.47 13795.04,17242.51 13794.77,17242.38"/>
    </edge>
    <edge id=":252017285_3" function="internal">
        <lane id=":252017285_3_0" index="0" disallow="tram rail_urban rail rail_electric rail_fast ship cable_car subway" speed="8.33" length="1.44" shape="13799.33,17242.47 13798.03,17241.85"/>
    </edge>
    <edge id=":252017285_16" function="internal">
        <lane id=":252017285_16_0" index="0" disallow="tram rail_urban rail rail_electric rail_fast ship cable_car subway" speed="11.11" length="10.54" shape="13794.77,17242.38 13792.09,17241.10 13790.47,17238.26 13790.19,17233.97"/>
    </edge>
    <edge id=":252017285_17" function="internal">
        <lane id=":252017285_17_0" index="0" disallow="tram rail_urban rail rail_electric rail_fast ship cable_car subway" speed="8.33" length="3.23" shape="13798.03,17241.85 13797.51,17241.12 13797.79,17240.27 13798.86,17239.30"/>
    </edge>
    <edge id=":252017285_4" function="internal">
        <lane id=":252017285_4_0" index="0" disallow="tram rail_urban rail rail_electric rail_fast ship cable_car subway" speed="11.11" length="9.07" shape="13793.38,17234.21 13793.55,17236.78 13794.52,17238.49 13796.29,17239.33 13798.86,17239.30"/>
    </edge>
    <edge id=":252017285_5" function="internal">
        <lane id=":252017285_5_0" index="0" disallow="tram rail_urban rail rail_electric rail_fast ship cable_car subway" speed="13.89" length="15.27" shape="13793.38,17234.21 13791.94,17249.42"/>
    </edge>
    <edge id=":252017285_6" function="internal">
        <lane id=":252017285_6_0" index="0" disallow="tram rail_urban rail rail_electric rail_fast ship cable_car subway" speed="13.89" length="4.57" shape="13793.38,17234.21 13792.50,17238.37 13792.32,17238.64"/>
    </edge>
    <edge id=":252017285_7" function="internal">
        <lane id=":252017285_7_0" index="0" disallow="tram rail_urban rail rail_electric rail_fast ship cable_car subway" speed="13.89" length="1.44" shape="13793.38,17234.21 13792.49,17235.35"/>
    </edge>
    <edge id=":252017285_18" function="internal">
        <lane id=":252017285_18_0" index="0" disallow="tram rail_urban rail rail_electric rail_fast ship cable_car subway" speed="13.89" length="10.32" shape="13792.32,17238.64 13790.59,17241.19 13787.67,17242.68 13783.72,17242.84"/>
    </edge>
    <edge id=":252017285_19" function="internal">
        <lane id=":252017285_19_0" index="0" disallow="tram rail_urban rail rail_electric rail_fast ship cable_car subway" speed="13.89" length="3.23" shape="13792.49,17235.35 13791.66,17235.68 13790.89,17235.22 13790.19,17233.97"/>
    </edge>
    <edge id=":252017285_8" function="internal">
        <lane id=":252017285_8_0" index="0" disallow="tram rail_urban rail rail_electric rail_fast ship cable_car subway" speed="13.89" length="9.60" shape="13784.08,17239.66 13786.57,17239.55 13788.42,17238.56 13789.62,17236.70 13790.19,17233.97"/>
    </edge>
    <edge id=":252017285_9" function="internal">
        <lane id=":252017285_9_0" index="0" disallow="tram rail_urban rail rail_electric rail_fast ship cable_car subway" speed="11.11" length="14.83" shape="13784.08,17239.66 13787.79,17239.95 13791.48,17239.98 13795.16,17239.76 13798.86,17239.30"/>
    </edge>
    <edge id=":252017285_10" function="internal">
        <lane id=":252017285_10_0" index="0" disallow="tram rail_urban rail rail_electric rail_fast ship cable_car subway" speed="13.89" length="3.84" shape="13784.08,17239.66 13787.80,17240.63"/>
    </edge>
    <edge id=":252017285_11" function="internal">
        <lane id=":252017285_11_0" index="0" disallow="tram rail_urban rail rail_electric rail_fast ship cable_car subway" speed="13.89" length="1.44" shape="13784.08,17239.66 13785.18,17240.59"/>
    </edge>
    <edge id=":252017285_20" function="internal">
        <lane id=":252017285_20_0" index="0" disallow="tram rail_urban rail rail_electric rail_fast ship cable_car subway" speed="13.89" length="10.45" shape="13787.80,17240.63 13787.89,17240.65 13790.48,17242.61 13791.83,17245.53 13791.94,17249.42"/>
    </edge>
    <edge id=":252017285_21" function="internal">
        <lane id=":252017285_21_0" index="0" disallow="tram rail_urban rail rail_electric rail_fast ship cable_car subway" speed="13.89" length="3.23" shape="13785.18,17240.59 13785.49,17241.43 13785.00,17242.18 13783.72,17242.84"/>
    </edge>
    <edge id=":252017285_12" function="internal">
        <lane id=":252017285_12_0" index="0" disallow="tram rail_urban rail rail_electric rail_fast ship cable_car subway" speed="13.89" length="9.13" shape="13788.76,17249.05 13788.69,17246.58 13787.82,17244.72 13786.16,17243.47 13783.72,17242.84"/>
    </edge>
    <edge id=":252017285_13" function="internal">
        <lane id=":252017285_13_0" index="0" disallow="tram rail_urban rail rail_electric rail_fast ship cable_car subway" speed="13.89" length="15.15" shape="13788.76,17249.05 13790.19,17233.97"/>
    </edge>
    <edge id=":252017285_14" function="internal">
        <lane id=":252017285_14_0" index="0" disallow="tram rail_urban rail rail_electric rail_fast ship cable_car subway" speed="11.11" length="3.87" shape="13788.76,17249.05 13789.75,17245.31"/>
    </edge>
    <edge id=":252017285_15" function="internal">
        <lane id=":252017285_15_0" index="0" disallow="tram rail_urban rail rail_electric rail_fast ship cable_car subway" speed="13.89" length="1.44" shape="13788.76,17249.05 13789.69,17247.95"/>
    </edge>
    <edge id=":252017285_22" function="internal">
        <lane id=":252017285_22_0" index="0" disallow="tram rail_urban rail rail_electric rail_fast ship cable_car subway" speed="11.11" length="11.36" shape="13789.75,17245.31 13791.76,17242.44 13794.80,17240.44 13798.86,17239.30"/>
    </edge>
    <edge id=":252017285_23" function="internal">
        <lane id=":252017285_23_0" index="0" disallow="tram rail_urban rail rail_electric rail_fast ship cable_car subway" speed="13.89" length="3.23" shape="13789.69,17247.95 13790.53,17247.65 13791.28,17248.13 13791.94,17249.42"/>
    </edge>
    <edge id=":252046468_0" function="internal">
        <lane id=":252046468_0_0" index="0" disallow="tram rail_urban rail rail_electric rail_fast ship cable_car subway" speed="13.89" length="4.67" shape="13717.07,17235.27 13715.97,17234.34 13715.66,17233.50 13716.15,17232.75 13717.43,17232.09"/>
    </edge>
    <edge id=":258346770_0" function="internal">
        <lane id=":258346770_0_0" index="0" disallow="tram rail_urban rail rail_electric rail_fast ship cable_car subway" speed="13.89" length="4.67" shape="13762.58,17497.08 13761.62,17498.15 13760.77,17498.43 13760.03,17497.92 13759.42,17496.62"/>
    </edge>
    <edge id=":476189_0" function="internal">
        <lane id=":476189_0_0" index="0" disallow="tram rail_urban rail rail_electric rail_fast ship cable_car subway" speed="13.89" length="4.67" shape="13809.08,16999.58 13809.97,16998.44 13810.80,16998.10 13811.57,16998.56 13812.28,16999.82"/>
    </edge>
    <edge id=":796761043_0" function="internal">
        <lane id=":796761043_0_0" index="0" disallow="tram rail_urban rail rail_electric rail_fast ship cable_car subway" speed="13.89" length="0.30" shape="13777.41,17376.75 13777.37,17377.05"/>
    </edge>
    <edge id=":796761043_1" function="internal">
        <lane id=":796761043_1_0" index="0" disallow="tram rail_urban rail rail_electric rail_fast ship cable_car subway" speed="13.89" length="2.34" shape="13777.41,17376.75 13776.48,17377.85 13775.64,17378.16"/>
    </edge>
    <edge id=":796761043_4" function="internal">
        <lane id=":796761043_4_0" index="0" disallow="tram rail_urban rail rail_electric rail_fast ship cable_car subway" speed="13.89" length="2.34" shape="13775.64,17378.16 13774.89,17377.67 13774.23,17376.39"/>
    </edge>
    <edge id=":796761043_2" function="internal">
        <lane id=":796761043_2_0" index="0" disallow="tram rail_urban rail rail_electric rail_fast ship cable_car subway" speed="13.89" length="0.30" shape="13774.19,17376.68 13774.23,17376.39"/>
    </edge>
    <edge id=":796761043_3" function="internal">
        <lane id=":796761043_3_0" index="0" disallow="tram rail_urban rail rail_electric rail_fast ship cable_car subway" speed="13.89" length="2.34" shape="13774.19,17376.68 13775.13,17375.58 13775.97,17375.28"/>
    </edge>
    <edge id=":796761043_5" function="internal">
        <lane id=":796761043_5_0" index="0" disallow="tram rail_urban rail rail_electric rail_fast ship cable_car subway" speed="13.89" length="2.34" shape="13775.97,17375.28 13776.72,17375.77 13777.37,17377.05"/>
    </edge>
    <edge id=":cluster_26718385_738066527_738066531_738066575_0" function="internal">
        <lane id=":cluster_26718385_738066527_738066531_738066575_0_0" index="0" disallow="tram rail_urban rail rail_electric rail_fast ship cable_car subway" speed="13.89" length="0.29" shape="13803.71,17104.35 13803.68,17104.63"/>
    </edge>
    <edge id=":cluster_26718385_738066527_738066531_738066575_1" function="internal">
        <lane id=":cluster_26718385_738066527_738066531_738066575_1_0" index="0" disallow="tram rail_urban rail rail_electric rail_fast ship cable_car subway" speed="13.89" length="2.34" shape="13803.71,17104.35 13802.80,17105.47 13801.97,17105.79"/>
    </edge>
    <edge id=":cluster_26718385_738066527_738066531_738066575_4" function="internal">
        <lane id=":cluster_26718385_738066527_738066531_738066575_4_0" index="0" disallow="tram rail_urban rail rail_electric rail_fast ship cable_car subway" speed="13.89" length="2.34" shape="13801.97,17105.79 13801.21,17105.32 13800.52,17104.06"/>
    </edge>
    <edge id=":cluster_26718385_738066527_738066531_738066575_2" function="internal">
        <lane id=":cluster_26718385_738066527_738066531_738066575_2_0" index="0" disallow="tram rail_urban rail rail_electric rail_fast ship cable_car subway" speed="13.89" length="0.31" shape="13800.49,17104.36 13800.52,17104.06"/>
    </edge>
    <edge id=":cluster_26718385_738066527_738066531_738066575_3" function="internal">
        <lane id=":cluster_26718385_738066527_738066531_738066575_3_0" index="0" disallow="tram rail_urban rail rail_electric rail_fast ship cable_car subway" speed="13.89" length="2.34" shape="13800.49,17104.36 13801.39,17103.23 13802.22,17102.90"/>
    </edge>
    <edge id=":cluster_26718385_738066527_738066531_738066575_5" function="internal">
        <lane id=":cluster_26718385_738066527_738066531_738066575_5_0" index="0" disallow="tram rail_urban rail rail_electric rail_fast ship cable_car subway" speed="13.89" length="2.34" shape="13802.22,17102.90 13802.99,17103.37 13803.68,17104.63"/>
    </edge>

    <edge id="-133081985#0" from="252016271" to="cluster_26718385_738066527_738066531_738066575" priority="9" type="highway.primary" shape="13798.52,17146.27 13802.10,17104.35">
        <lane id="-133081985#0_0" index="0" disallow="tram rail_urban rail rail_electric rail_fast ship cable_car subway" speed="13.89" length="41.78" shape="13796.94,17145.99 13800.49,17104.36"/>
    </edge>
    <edge id="-133081985#1" from="252017285" to="252016271" priority="9" type="highway.primary">
        <lane id="-133081985#1_0" index="0" disallow="tram rail_urban rail rail_electric rail_fast ship cable_car subway" speed="13.89" length="87.93" shape="13790.19,17233.97 13796.91,17146.30"/>
    </edge>
    <edge id="-23283579#0" from="252046468" to="252017285" priority="4" type="highway.residential">
        <lane id="-23283579#0_0" index="0" disallow="tram rail_urban rail rail_electric rail_fast ship cable_car subway" speed="13.89" length="67.08" shape="13717.43,17232.09 13784.08,17239.66"/>
    </edge>
    <edge id="-28675510#0" from="796761043" to="252017285" priority="9" type="highway.primary">
        <lane id="-28675510#0_0" index="0" disallow="tram rail_urban rail rail_electric rail_fast ship cable_car subway" speed="13.89" length="128.16" shape="13774.23,17376.39 13788.76,17249.05"/>
    </edge>
    <edge id="-28675510#3" from="258346770" to="796761043" priority="9" type="highway.primary" shape="13761.00,17496.85 13762.47,17486.81 13769.45,17430.97 13775.80,17376.72">
        <lane id="-28675510#3_0" index="0" disallow="tram rail_urban rail rail_electric rail_fast ship cable_car subway" speed="13.89" length="120.85" shape="13759.42,17496.62 13760.88,17486.59 13767.86,17430.78 13774.19,17376.68"/>
    </edge>
    <edge id="-309744810#1" from="cluster_26718385_738066527_738066531_738066575" to="476189" priority="9" type="highway.primary" shape="13802.10,17104.35 13804.49,17078.10 13805.05,17071.83 13806.28,17057.89 13809.80,17011.42 13810.68,16999.70">
        <lane id="-309744810#1_0" index="0" disallow="tram rail_urban rail rail_electric rail_fast ship cable_car subway" speed="13.89" length="104.83" shape="13800.52,17104.06 13802.90,17077.96 13803.46,17071.69 13804.69,17057.76 13808.20,17011.30 13809.08,16999.58"/>
    </edge>
    <edge id="-8716807#0" from="252016274" to="252017285" priority="5" type="highway.unclassified" shape="13903.95,17224.77 13796.66,17241.26 13791.17,17242.08">
        <lane id="-8716807#0_0" index="0" disallow="tram rail_urban rail rail_electric rail_fast ship cable_car subway" speed="8.33" length="106.09" shape="13904.19,17226.35 13799.33,17242.47"/>
    </edge>
    <edge id="133081985#0" from="cluster_26718385_738066527_738066531_738066575" to="252016271" priority="9" type="highway.primary" shape="13802.10,17104.35 13798.52,17146.27">
        <lane id="133081985#0_0" index="0" disallow="tram rail_urban rail rail_electric rail_fast ship cable_car subway" speed="13.89" length="41.78" shape="13803.68,17104.63 13800.13,17146.26"/>
    </edge>
    <edge id="133081985#1" from="252016271" to="252017285" priority="9" type="highway.primary">
        <lane id="133081985#1_0" index="0" disallow="tram rail_urban rail rail_electric rail_fast ship cable_car subway" speed="13.89" length="87.93" shape="13800.10,17146.54 13793.38,17234.21"/>
    </edge>
    <edge id="133081987#3" from="476189" to="cluster_26718385_738066527_738066531_738066575" priority="9" type="highway.primary" shape="13810.68,16999.70 13809.80,17011.42 13806.28,17057.89 13805.05,17071.83 13804.49,17078.10 13802.10,17104.35">
        <lane id="133081987#3_0" index="0" disallow="tram rail_urban rail rail_electric rail_fast ship cable_car subway" speed="13.89" length="104.88" shape="13812.28,16999.82 13811.40,17011.54 13807.87,17058.02 13806.64,17071.97 13806.08,17078.24 13803.71,17104.35"/>
    </edge>
    <edge id="23283579#0" from="252017285" to="252046468" priority="4" type="highway.residential">
        <lane id="23283579#0_0" index="0" disallow="tram rail_urban rail rail_electric rail_fast ship cable_car subway" speed="13.89" length="67.08" shape="13783.72,17242.84 13717.07,17235.27"/>
    </edge>
    <edge id="28675510#0" from="252017285" to="796761043" priority="9" type="highway.primary">
        <lane id="28675510#0_0" index="0" disallow="tram rail_urban rail rail_electric rail_fast ship cable_car subway" speed="13.89" length="128.16" shape="13791.94,17249.42 13777.41,17376.75"/>
    </edge>
    <edge id="28675510#1" from="796761043" to="258346770" priority="9" type="highway.primary" shape="13775.80,17376.72 13769.45,17430.97 13762.47,17486.81 13761.00,17496.85">
        <lane id="28675510#1_0" index="0" disallow="tram rail_urban rail rail_electric rail_fast ship cable_car subway" speed="13.89" length="120.94" shape="13777.37,17377.05 13771.04,17431.16 13764.06,17487.03 13762.58,17497.08"/>
    </edge>
    <edge id="8716807#0" from="252017285" to="252016274" priority="5" type="highway.unclassified" shape="13791.17,17242.08 13796.66,17241.26 13903.95,17224.77">
        <lane id="8716807#0_0" index="0" disallow="tram rail_urban rail rail_electric rail_fast ship cable_car subway" speed="8.33" length="106.08" shape="13798.86,17239.30 13903.71,17223.19"/>
    </edge>

    <tlLogic id="252017285" type="static" programID="0" offset="0">
        <phase duration="33" state="rrrrGGggrrrrGGgg"/>
        <phase duration="3"  state="rrrryyyyrrrryyyy"/>
        <phase duration="33" state="GGggrrrrGGggrrrr"/>
        <phase duration="3"  state="yyyyrrrryyyyrrrr"/>
    </tlLogic>

    <junction id="252016271" type="priority" x="13798.52" y="17146.27" incLanes="133081985#0_0 -133081985#1_0" intLanes=":252016271_0_0 :252016271_4_0 :252016271_2_0 :252016271_5_0" shape="13801.72,17146.39 13795.34,17145.85 13795.32,17146.17 13801.70,17146.66">
        <request index="0" response="0000" foes="1000" cont="0"/>
        <request index="1" response="0100" foes="0100" cont="1"/>
        <request index="2" response="0000" foes="0010" cont="0"/>
        <request index="3" response="0001" foes="0001" cont="1"/>
    </junction>
    <junction id="252016274" type="priority" x="13903.95" y="17224.77" incLanes="8716807#0_0" intLanes=":252016274_0_0" shape="13903.95,17224.77 13903.46,17221.61 13903.95,17224.77">
        <request index="0" response="0" foes="0" cont="0"/>
    </junction>
    <junction id="252017285" type="traffic_light" x="13791.17" y="17242.08" incLanes="-8716807#0_0 133081985#1_0 -23283579#0_0 -28675510#0_0" intLanes=":252017285_0_0 :252017285_1_0 :252017285_16_0 :252017285_17_0 :252017285_4_0 :252017285_5_0 :252017285_18_0 :252017285_19_0 :252017285_8_0 :252017285_9_0 :252017285_20_0 :252017285_21_0 :252017285_12_0 :252017285_13_0 :252017285_22_0 :252017285_23_0" shape="13799.57,17244.05 13798.62,17237.72 13794.97,17234.33 13788.59,17233.84 13784.26,17238.07 13783.54,17244.43 13787.17,17248.87 13793.53,17249.60">
        <request index="0"  response="0000000000100000" foes="1000010000100000" cont="0"/>
        <request index="1"  response="0111000001100000" foes="0111110001100000" cont="0"/>
        <request index="2"  response="0110001101100000" foes="0110011111100000" cont="1"/>
        <request index="3"  response="0100001000010000" foes="0100001000010000" cont="1"/>
        <request index="4"  response="0000000000000000" foes="0100001000001000" cont="0"/>
        <request index="5"  response="0000010000000100" foes="1100011000000111" cont="0"/>
        <request index="6"  response="0011010000000100" foes="0111111000000110" cont="1"/>
        <request index="7"  response="0010000100000100" foes="0010000100000100" cont="1"/>
        <request index="8"  response="0010000000000000" foes="0010000010000100" cont="0"/>
        <request index="9"  response="0110000001110000" foes="0110000001111100" cont="0"/>
        <request index="10" response="0110000001100111" foes="1110000001100111" cont="1"/>
        <request index="11" response="0001000001000010" foes="0001000001000010" cont="1"/>
        <request index="12" response="0000000000000000" foes="0000100001000010" cont="0"/>
        <request index="13" response="0000010000000100" foes="0000011111000110" cont="0"/>
        <request index="14" response="0000010001110100" foes="0000011001111110" cont="1"/>
        <request index="15" response="0000010000100001" foes="0000010000100001" cont="1"/>
    </junction>
    <junction id="252046468" type="priority" x="13717.25" y="17233.68" incLanes="23283579#0_0" intLanes=":252046468_0_0" shape="13717.25,17233.68 13716.89,17236.86 13717.25,17233.68">
        <request index="0" response="0" foes="0" cont="0"/>
    </junction>
    <junction id="258346770" type="priority" x="13761.00" y="17496.85" incLanes="28675510#1_0" intLanes=":258346770_0_0" shape="13761.00,17496.85 13764.17,17497.31 13761.00,17496.85">
        <request index="0" response="0" foes="0" cont="0"/>
    </junction>
    <junction id="476189" type="priority" x="13810.68" y="16999.70" incLanes="-309744810#1_0" intLanes=":476189_0_0" shape="13810.68,16999.70 13807.49,16999.46 13810.68,16999.70">
        <request index="0" response="0" foes="0" cont="0"/>
    </junction>
    <junction id="796761043" type="priority" x="13775.80" y="17376.72" incLanes="28675510#0_0 -28675510#3_0" intLanes=":796761043_0_0 :796761043_4_0 :796761043_2_0 :796761043_5_0" shape="13779.00,17376.93 13772.64,17376.21 13772.60,17376.50 13778.96,17377.24">
        <request index="0" response="0000" foes="1000" cont="0"/>
        <request index="1" response="0100" foes="0100" cont="1"/>
        <request index="2" response="0000" foes="0010" cont="0"/>
        <request index="3" response="0001" foes="0001" cont="1"/>
    </junction>
    <junction id="cluster_26718385_738066527_738066531_738066575" type="priority" x="13794.50" y="17102.27" incLanes="133081987#3_0 -133081985#0_0" intLanes=":cluster_26718385_738066527_738066531_738066575_0_0 :cluster_26718385_738066527_738066531_738066575_4_0 :cluster_26718385_738066527_738066531_738066575_2_0 :cluster_26718385_738066527_738066531_738066575_5_0" shape="13805.30,17104.49 13798.93,17103.91 13798.90,17104.23 13805.28,17104.77">
        <request index="0" response="0000" foes="1000" cont="0"/>
        <request index="1" response="0100" foes="0100" cont="1"/>
        <request index="2" response="0000" foes="0010" cont="0"/>
        <request index="3" response="0001" foes="0001" cont="1"/>
    </junction>

    <junction id=":252016271_4_0" type="internal" x="13798.40" y="17147.72" incLanes=":252016271_1_0 -133081985#1_0" intLanes=":252016271_2_0"/>
    <junction id=":252016271_5_0" type="internal" x="13798.63" y="17144.82" incLanes=":252016271_3_0 133081985#0_0" intLanes=":252016271_0_0"/>
    <junction id=":252017285_16_0" type="internal" x="13794.77" y="17242.38" incLanes=":252017285_2_0 -23283579#0_0" intLanes=":252017285_5_0 :252017285_6_0 :252017285_7_0 :252017285_8_0 :252017285_9_0 :252017285_13_0 :252017285_14_0"/>
    <junction id=":252017285_17_0" type="internal" x="13798.03" y="17241.85" incLanes=":252017285_3_0 -23283579#0_0 -28675510#0_0 133081985#1_0" intLanes=":252017285_4_0 :252017285_9_0 :252017285_14_0"/>
    <junction id=":252017285_18_0" type="internal" x="13792.32" y="17238.64" incLanes=":252017285_6_0 -28675510#0_0" intLanes=":252017285_1_0 :252017285_2_0 :252017285_9_0 :252017285_10_0 :252017285_11_0 :252017285_12_0 :252017285_13_0"/>
    <junction id=":252017285_19_0" type="internal" x="13792.49" y="17235.35" incLanes=":252017285_7_0 -23283579#0_0 -28675510#0_0 -8716807#0_0" intLanes=":252017285_2_0 :252017285_8_0 :252017285_13_0"/>
    <junction id=":252017285_20_0" type="internal" x="13787.80" y="17240.63" incLanes=":252017285_10_0 -8716807#0_0" intLanes=":252017285_0_0 :252017285_1_0 :252017285_5_0 :252017285_6_0 :252017285_13_0 :252017285_14_0 :252017285_15_0"/>
    <junction id=":252017285_21_0" type="internal" x="13785.18" y="17240.59" incLanes=":252017285_11_0 -28675510#0_0 -8716807#0_0 133081985#1_0" intLanes=":252017285_1_0 :252017285_6_0 :252017285_12_0"/>
    <junction id=":252017285_22_0" type="internal" x="13789.75" y="17245.31" incLanes=":252017285_14_0 133081985#1_0" intLanes=":252017285_1_0 :252017285_2_0 :252017285_3_0 :252017285_4_0 :252017285_5_0 :252017285_9_0 :252017285_10_0"/>
    <junction id=":252017285_23_0" type="internal" x="13789.69" y="17247.95" incLanes=":252017285_15_0 -23283579#0_0 -8716807#0_0 133081985#1_0" intLanes=":252017285_0_0 :252017285_5_0 :252017285_10_0"/>
    <junction id=":796761043_4_0" type="internal" x="13775.64" y="17378.16" incLanes=":796761043_1_0 -28675510#3_0" intLanes=":796761043_2_0"/>
    <junction id=":796761043_5_0" type="internal" x="13775.97" y="17375.28" incLanes=":796761043_3_0 28675510#0_0" intLanes=":796761043_0_0"/>
    <junction id=":cluster_26718385_738066527_738066531_738066575_4_0" type="internal" x="13801.97" y="17105.79" incLanes=":cluster_26718385_738066527_738066531_738066575_1_0 -133081985#0_0" intLanes=":cluster_26718385_738066527_738066531_738066575_2_0"/>
    <junction id=":cluster_26718385_738066527_738066531_738066575_5_0" type="internal" x="13802.22" y="17102.90" incLanes=":cluster_26718385_738066527_738066531_738066575_3_0 133081987#3_0" intLanes=":cluster_26718385_738066527_738066531_738066575_0_0"/>

    <connection from="-133081985#0" to="-309744810#1" fromLane="0" toLane="0" keepClear="0" via=":cluster_26718385_738066527_738066531_738066575_2_0" dir="s" state="M"/>
    <connection from="-133081985#0" to="133081985#0" fromLane="0" toLane="0" via=":cluster_26718385_738066527_738066531_738066575_3_0" dir="t" state="m"/>
    <connection from="-133081985#1" to="-133081985#0" fromLane="0" toLane="0" keepClear="0" via=":252016271_2_0" dir="s" state="M"/>
    <connection from="-133081985#1" to="133081985#1" fromLane="0" toLane="0" via=":252016271_3_0" dir="t" state="m"/>
    <connection from="-23283579#0" to="-133081985#1" fromLane="0" toLane="0" via=":252017285_8_0" tl="252017285" linkIndex="8" dir="r" state="o"/>
    <connection from="-23283579#0" to="8716807#0" fromLane="0" toLane="0" via=":252017285_9_0" tl="252017285" linkIndex="9" dir="s" state="o"/>
    <connection from="-23283579#0" to="28675510#0" fromLane="0" toLane="0" via=":252017285_10_0" tl="252017285" linkIndex="10" dir="l" state="o"/>
    <connection from="-23283579#0" to="23283579#0" fromLane="0" toLane="0" via=":252017285_11_0" tl="252017285" linkIndex="11" dir="t" state="o"/>
    <connection from="-28675510#0" to="23283579#0" fromLane="0" toLane="0" via=":252017285_12_0" tl="252017285" linkIndex="12" dir="r" state="O"/>
    <connection from="-28675510#0" to="-133081985#1" fromLane="0" toLane="0" via=":252017285_13_0" tl="252017285" linkIndex="13" dir="s" state="O"/>