<?xml version="1.0" encoding="UTF-8"?>

<!-- generated on 2025-03-03 16:01:56.685744 by randomTrips.py v1_19_0+1770-8bb5c24c187
<configuration>
    <net-file value="cologne_3.net.xml"/>
    <output-trip-file value="cologne_3_light.trips.xml"/>
    <period value="4.0"/>
    <binomial value="4"/>
</configuration>
-->

<routes xmlns:xsi="http://www.w3.org/2001/XMLSchema-instance" xsi:noNamespaceSchemaLocation="http://sumo.dlr.de/xsd/routes_file.xsd">
    <trip id="0" depart="0.00" from="-23686088#1" to="-23686088#1"/>
    <trip id="1" depart="1.00" from="-23686088#0" to="23686088#0"/>
    <trip id="2" depart="2.00" from="-23686088#0" to="23686088#1"/>
    <trip id="3" depart="3.00" from="23686088#0" to="23686088#1"/>
    <trip id="4" depart="8.00" from="-23686088#0" to="133081987#0"/>
    <trip id="5" depart="14.00" from="-23686088#1" to="133081987#0"/>
    <trip id="6" depart="19.00" from="-133081987#2" to="23686088#1"/>
    <trip id="7" depart="21.00" from="23283473" to="23686088#1"/>
    <trip id="8" depart="27.00" from="-23686088#1" to="-23686088#0"/>
    <trip id="9" depart="28.00" from="23686088#1" to="8716827#0"/>
    <trip id="10" depart="44.00" from="23686088#1" to="4936412"/>
    <trip id="11" depart="46.00" from="-4936412" to="8716827#0"/>
    <trip id="12" depart="50.00" from="160807420" to="23686088#0"/>
    <trip id="13" depart="60.00" from="23686088#0" to="133081987#0"/>
    <trip id="14" depart="65.00" from="23686088#0" to="23686088#1"/>
    <trip id="15" depart="66.00" from="-133081987#2" to="8716827#0"/>
    <trip id="16" depart="73.00" from="23283473" to="133081987#0"/>
    <trip id="17" depart="77.00" from="-23686088#0" to="133081987#0"/>
    <trip id="18" depart="83.00" from="23686088#1" to="23686088#0"/>
    <trip id="19" depart="89.00" from="-23686088#1" to="155723703#0"/>
    <trip id="20" depart="93.00" from="-23686088#0" to="155723703#0"/>
    <trip id="21" depart="96.00" from="23686088#0" to="4936412"/>
    <trip id="22" depart="97.00" from="-23686088#0" to="4936412"/>
    <trip id="23" depart="108.00" from="-23686088#1" to="4936412"/>
    <trip id="24" depart="111.00" from="-23686088#1" to="23686088#1"/>
    <trip id="25" depart="112.00" from="-4936412" to="23686088#0"/>
    <trip id="26" depart="113.00" from="23283473" to="-23686088#1"/>
    <trip id="27" depart="113.00" from="-4936412" to="-23686088#1"/>
    <trip id="28" depart="115.00" from="160807420" to="8716827#0"/>
    <trip id="29" depart="117.00" from="-23686088#0" to="-23686088#1"/>
    <trip id="30" depart="120.00" from="-23686088#1" to="23686088#1"/>
    <trip id="31" depart="131.00" from="23686088#0" to="-23686088#1"/>
    <trip id="32" depart="133.00" from="23686088#1" to="-23686088#0"/>
    <trip id="33" depart="142.00" from="160807420" to="133081987#0"/>
    <trip id="34" depart="145.00" from="23686088#1" to="155723703#0"/>
    <trip id="35" depart="147.00" from="-23686088#0" to="23686088#0"/>
    <trip id="36" depart="153.00" from="-4936412" to="23686088#0"/>
    <trip id="37" depart="160.00" from="-4936412" to="133081987#0"/>
    <trip id="38" depart="163.00" from="23686088#0" to="155723703#0"/>
    <trip id="39" depart="184.00" from="23283473" to="23686088#1"/>
    <trip id="40" depart="186.00" from="160807420" to="23686088#0"/>
    <trip id="41" depart="192.00" from="-133081987#2" to="23686088#1"/>
    <trip id="42" depart="195.00" from="23686088#0" to="133081987#0"/>
    <trip id="43" depart="199.00" from="23686088#0" to="8716827#0"/>
    <trip id="44" depart="205.00" from="160807420" to="155723703#0"/>
    <trip id="45" depart="216.00" from="160807420" to="155723703#0"/>
    <trip id="46" depart="218.00" from="23686088#1" to="23686088#0"/>
    <trip id="47" depart="225.00" from="-23686088#1" to="155723703#0"/>
    <trip id="48" depart="229.00" from="23686088#0" to="-23686088#1"/>
    <trip id="49" depart="232.00" from="23686088#0" to="-23686088#1"/>
    <trip id="50" depart="233.00" from="-133081987#2" to="4936412"/>
    <trip id="51" depart="234.00" from="23283473" to="23686088#0"/>
    <trip id="52" depart="236.00" from="23686088#0" to="4936412"/>
    <trip id="53" depart="237.00" from="-4936412" to="155723703#0"/>
    <trip id="54" depart="254.00" from="23686088#1" to="4936412"/>
    <trip id="55" depart="255.00" from="23686088#0" to="23686088#0"/>
    <trip id="56" depart="256.00" from="23283473" to="-23686088#1"/>
    <trip id="57" depart="258.00" from="-23686088#0" to="23686088#0"/>
    <trip id="58" depart="262.00" from="-4936412" to="23686088#0"/>
    <trip id="59" depart="262.00" from="-23686088#1" to="-23686088#1"/>
    <trip id="60" depart="263.00" from="23283473" to="-23686088#1"/>
    <trip id="61" depart="265.00" from="-133081987#2" to="8716827#0"/>
    <trip id="62" depart="267.00" from="-23686088#1" to="4936412"/>
    <trip id="63" depart="278.00" from="160807420" to="133081987#0"/>
    <trip id="64" depart="279.00" from="23686088#0" to="-23686088#0"/>
    <trip id="65" depart="282.00" from="-133081987#2" to="8716827#0"/>
    <trip id="66" depart="297.00" from="-23686088#1" to="4936412"/>
    <trip id="67" depart="309.00" from="-133081987#2" to="23686088#0"/>
    <trip id="68" depart="310.00" from="23686088#1" to="4936412"/>
    <trip id="69" depart="313.00" from="-133081987#2" to="133081987#0"/>
    <trip id="70" depart="315.00" from="-4936412" to="4936412"/>
    <trip id="71" depart="316.00" from="160807420" to="-23686088#1"/>
    <trip id="72" depart="321.00" from="23686088#0" to="133081987#0"/>
    <trip id="73" depart="322.00" from="160807420" to="4936412"/>
    <trip id="74" depart="325.00" from="-23686088#0" to="-23686088#0"/>
    <trip id="75" depart="334.00" from="23686088#0" to="133081987#0"/>
    <trip id="76" depart="338.00" from="-133081987#2" to="4936412"/>
    <trip id="77" depart="350.00" from="160807420" to="133081987#0"/>
    <trip id="78" depart="356.00" from="-133081987#2" to="-23686088#1"/>
    <trip id="79" depart="362.00" from="-133081987#2" to="23686088#1"/>
    <trip id="80" depart="366.00" from="-4936412" to="155723703#0"/>
    <trip id="81" depart="373.00" from="23686088#1" to="23686088#0"/>
    <trip id="82" depart="374.00" from="-4936412" to="8716827#0"/>
    <trip id="83" depart="382.00" from="-23686088#0" to="133081987#0"/>
    <trip id="84" depart="388.00" from="-4936412" to="8716827#0"/>
    <trip id="85" depart="391.00" from="23686088#1" to="-23686088#0"/>
    <trip id="86" depart="391.00" from="-23686088#1" to="-23686088#1"/>
    <trip id="87" depart="393.00" from="-23686088#0" to="-23686088#1"/>
    <trip id="88" depart="406.00" from="-4936412" to="23686088#1"/>
    <trip id="89" depart="407.00" from="160807420" to="8716827#0"/>
    <trip id="90" depart="414.00" from="160807420" to="-23686088#0"/>
    <trip id="91" depart="423.00" from="23283473" to="23686088#1"/>
    <trip id="92" depart="423.00" from="-133081987#2" to="133081987#0"/>
    <trip id="93" depart="430.00" from="160807420" to="23686088#0"/>
    <trip id="94" depart="434.00" from="-4936412" to="4936412"/>
    <trip id="95" depart="435.00" from="-23686088#1" to="-23686088#0"/>
    <trip id="96" depart="436.00" from="-4936412" to="4936412"/>
    <trip id="97" depart="441.00" from="-133081987#2" to="133081987#0"/>
    <trip id="98" depart="445.00" from="-23686088#0" to="-23686088#0"/>
    <trip id="99" depart="445.00" from="160807420" to="23686088#1"/>
    <trip id="100" depart="446.00" from="23283473" to="155723703#0"/>
    <trip id="101" depart="447.00" from="160807420" to="133081987#0"/>
    <trip id="102" depart="450.00" from="23686088#1" to="8716827#0"/>
    <trip id="103" depart="461.00" from="23686088#1" to="8716827#0"/>
    <trip id="104" depart="473.00" from="-133081987#2" to="4936412"/>
    <trip id="105" depart="475.00" from="160807420" to="133081987#0"/>
    <trip id="106" depart="477.00" from="160807420" to="-23686088#0"/>
    <trip id="107" depart="478.00" from="23686088#0" to="23686088#1"/>
    <trip id="108" depart="484.00" from="-133081987#2" to="-23686088#1"/>
    <trip id="109" depart="486.00" from="-23686088#0" to="4936412"/>
    <trip id="110" depart="486.00" from="-133081987#2" to="8716827#0"/>
    <trip id="111" depart="487.00" from="23686088#1" to="133081987#0"/>
    <trip id="112" depart="492.00" from="-4936412" to="4936412"/>
    <trip id="113" depart="493.00" from="-23686088#1" to="8716827#0"/>
    <trip id="114" depart="498.00" from="-23686088#1" to="133081987#0"/>
    <trip id="115" depart="500.00" from="-23686088#1" to="-23686088#0"/>
    <trip id="116" depart="522.00" from="23686088#1" to="23686088#1"/>
    <trip id="117" depart="524.00" from="-23686088#1" to="23686088#0"/>
    <trip id="118" depart="526.00" from="-133081987#2" to="155723703#0"/>
    <trip id="119" depart="534.00" from="160807420" to="-23686088#1"/>
    <trip id="120" depart="546.00" from="-23686088#1" to="-23686088#0"/>
    <trip id="121" depart="548.00" from="23686088#0" to="133081987#0"/>
    <trip id="122" depart="552.00" from="23283473" to="23686088#0"/>
    <trip id="123" depart="558.00" from="-23686088#1" to="133081987#0"/>
    <trip id="124" depart="567.00" from="23686088#0" to="23686088#1"/>
    <trip id="125" depart="571.00" from="-133081987#2" to="4936412"/>
    <trip id="126" depart="572.00" from="23686088#1" to="-23686088#1"/>
    <trip id="127" depart="577.00" from="-4936412" to="-23686088#1"/>
    <trip id="128" depart="578.00" from="23283473" to="4936412"/>
    <trip id="129" depart="582.00" from="23283473" to="155723703#0"/>
    <trip id="130" depart="589.00" from="23686088#1" to="8716827#0"/>
    <trip id="131" depart="593.00" from="-133081987#2" to="133081987#0"/>
    <trip id="132" depart="594.00" from="-133081987#2" to="4936412"/>
    <trip id="133" depart="599.00" from="-133081987#2" to="155723703#0"/>
    <trip id="134" depart="604.00" from="23686088#0" to="133081987#0"/>
    <trip id="135" depart="608.00" from="23686088#0" to="-23686088#1"/>
    <trip id="136" depart="615.00" from="-23686088#0" to="23686088#0"/>
    <trip id="137" depart="618.00" from="-4936412" to="-23686088#1"/>
    <trip id="138" depart="619.00" from="23283473" to="4936412"/>
    <trip id="139" depart="621.00" from="23686088#1" to="23686088#1"/>
    <trip id="140" depart="631.00" from="23686088#0" to="133081987#0"/>
    <trip id="141" depart="633.00" from="-4936412" to="155723703#0"/>
    <trip id="142" depart="635.00" from="23686088#0" to="8716827#0"/>
    <trip id="143" depart="637.00" from="-133081987#2" to="8716827#0"/>
    <trip id="144" depart="639.00" from="-4936412" to="-23686088#1"/>
    <trip id="145" depart="640.00" from="23283473" to="-23686088#1"/>
    <trip id="146" depart="641.00" from="160807420" to="-23686088#1"/>
    <trip id="147" depart="642.00" from="-23686088#1" to="-23686088#1"/>
    <trip id="148" depart="647.00" from="23686088#1" to="23686088#0"/>
    <trip id="149" depart="649.00" from="23686088#1" to="-23686088#1"/>
    <trip id="150" depart="652.00" from="23283473" to="8716827#0"/>
    <trip id="151" depart="655.00" from="23686088#1" to="-23686088#1"/>
    <trip id="152" depart="657.00" from="160807420" to="8716827#0"/>
    <trip id="153" depart="665.00" from="160807420" to="8716827#0"/>
    <trip id="154" depart="670.00" from="-4936412" to="23686088#1"/>
    <trip id="155" depart="677.00" from="23686088#1" to="-23686088#1"/>
    <trip id="156" depart="680.00" from="160807420" to="4936412"/>
    <trip id="157" depart="682.00" from="-23686088#0" to="133081987#0"/>
    <trip id="158" depart="686.00" from="23686088#0" to="23686088#1"/>
    <trip id="159" depart="702.00" from="-23686088#1" to="-23686088#1"/>
    <trip id="160" depart="703.00" from="23686088#1" to="133081987#0"/>
    <trip id="161" depart="704.00" from="23686088#0" to="133081987#0"/>
    <trip id="162" depart="711.00" from="-23686088#0" to="4936412"/>
    <trip id="163" depart="714.00" from="-23686088#1" to="23686088#0"/>
    <trip id="164" depart="719.00" from="23686088#0" to="4936412"/>
    <trip id="165" depart="719.00" from="23686088#1" to="23686088#1"/>
    <trip id="166" depart="719.00" from="-23686088#1" to="4936412"/>
    <trip id="167" depart="730.00" from="23283473" to="23686088#0"/>
    <trip id="168" depart="740.00" from="23686088#0" to="-23686088#1"/>
    <trip id="169" depart="743.00" from="-23686088#1" to="4936412"/>
    <trip id="170" depart="746.00" from="-23686088#0" to="133081987#0"/>
    <trip id="171" depart="746.00" from="-23686088#1" to="4936412"/>
    <trip id="172" depart="755.00" from="23686088#1" to="133081987#0"/>
    <trip id="173" depart="755.00" from="23686088#1" to="23686088#1"/>
    <trip id="174" depart="756.00" from="23283473" to="155723703#0"/>
    <trip id="175" depart="762.00" from="-4936412" to="-23686088#1"/>
    <trip id="176" depart="763.00" from="23283473" to="8716827#0"/>
    <trip id="177" depart="767.00" from="-23686088#1" to="4936412"/>
    <trip id="178" depart="768.00" from="23686088#0" to="23686088#1"/>
    <trip id="179" depart="773.00" from="23686088#1" to="-23686088#1"/>
    <trip id="180" depart="775.00" from="23283473" to="4936412"/>
    <trip id="181" depart="776.00" from="-23686088#1" to="133081987#0"/>
    <trip id="182" depart="781.00" from="23283473" to="-23686088#1"/>
    <trip id="183" depart="783.00" from="-23686088#0" to="23686088#1"/>
    <trip id="184" depart="787.00" from="-133081987#2" to="23686088#0"/>
    <trip id="185" depart="789.00" from="-23686088#0" to="155723703#0"/>
    <trip id="186" depart="793.00" from="-23686088#0" to="-23686088#1"/>
    <trip id="187" depart="798.00" from="23686088#1" to="4936412"/>
    <trip id="188" depart="812.00" from="-23686088#0" to="23686088#1"/>
    <trip id="189" depart="814.00" from="23686088#0" to="-23686088#0"/>
    <trip id="190" depart="818.00" from="-23686088#1" to="23686088#0"/>
    <trip id="191" depart="826.00" from="23686088#1" to="23686088#0"/>
    <trip id="192" depart="832.00" from="23283473" to="155723703#0"/>
    <trip id="193" depart="836.00" from="23686088#1" to="-23686088#1"/>
    <trip id="194" depart="837.00" from="-133081987#2" to="23686088#1"/>
    <trip id="195" depart="841.00" from="23686088#0" to="23686088#0"/>
    <trip id="196" depart="843.00" from="23283473" to="23686088#0"/>
    <trip id="197" depart="851.00" from="160807420" to="23686088#0"/>
    <trip id="198" depart="862.00" from="-23686088#0" to="-23686088#1"/>
    <trip id="199" depart="867.00" from="160807420" to="-23686088#0"/>
    <trip id="200" depart="876.00" from="-23686088#0" to="8716827#0"/>
    <trip id="201" depart="877.00" from="23686088#1" to="133081987#0"/>
    <trip id="202" depart="887.00" from="-133081987#2" to="23686088#0"/>
    <trip id="203" depart="888.00" from="160807420" to="-23686088#0"/>
    <trip id="204" depart="889.00" from="23283473" to="23686088#1"/>
    <trip id="205" depart="896.00" from="23686088#0" to="23686088#0"/>
    <trip id="206" depart="899.00" from="160807420" to="-23686088#1"/>
    <trip id="207" depart="904.00" from="23283473" to="23686088#1"/>
    <trip id="208" depart="913.00" from="-133081987#2" to="-23686088#1"/>
    <trip id="209" depart="915.00" from="-4936412" to="8716827#0"/>
    <trip id="210" depart="918.00" from="160807420" to="23686088#0"/>
    <trip id="211" depart="919.00" from="-23686088#0" to="-23686088#0"/>
    <trip id="212" depart="929.00" from="-133081987#2" to="-23686088#0"/>
    <trip id="213" depart="931.00" from="23686088#0" to="-23686088#1"/>
    <trip id="214" depart="938.00" from="-4936412" to="23686088#0"/>
    <trip id="215" depart="941.00" from="23686088#0" to="155723703#0"/>
    <trip id="216" depart="944.00" from="-23686088#0" to="23686088#0"/>
    <trip id="217" depart="954.00" from="23686088#0" to="155723703#0"/>
    <trip id="218" depart="956.00" from="-133081987#2" to="4936412"/>
    <trip id="219" depart="965.00" from="23283473" to="23686088#1"/>
    <trip id="220" depart="967.00" from="-4936412" to="4936412"/>
    <trip id="221" depart="970.00" from="23283473" to="4936412"/>
    <trip id="222" depart="976.00" from="23686088#0" to="4936412"/>
    <trip id="223" depart="977.00" from="23686088#1" to="8716827#0"/>
    <trip id="224" depart="977.00" from="-4936412" to="133081987#0"/>
    <trip id="225" depart="978.00" from="-23686088#1" to="155723703#0"/>
    <trip id="226" depart="984.00" from="-133081987#2" to="23686088#0"/>
    <trip id="227" depart="989.00" from="23686088#0" to="-23686088#0"/>
    <trip id="228" depart="992.00" from="-4936412" to="4936412"/>
    <trip id="229" depart="994.00" from="23686088#1" to="23686088#0"/>
    <trip id="230" depart="997.00" from="-133081987#2" to="4936412"/>
    <trip id="231" depart="1000.00" from="23283473" to="23686088#1"/>
    <trip id="232" depart="1008.00" from="23283473" to="155723703#0"/>
    <trip id="233" depart="1008.00" from="23686088#0" to="4936412"/>
    <trip id="234" depart="1017.00" from="160807420" to="8716827#0"/>
    <trip id="235" depart="1019.00" from="-133081987#2" to="133081987#0"/>
    <trip id="236" depart="1032.00" from="23686088#0" to="23686088#1"/>
    <trip id="237" depart="1033.00" from="-23686088#1" to="-23686088#1"/>
    <trip id="238" depart="1039.00" from="23686088#0" to="133081987#0"/>
    <trip id="239" depart="1041.00" from="23686088#0" to="155723703#0"/>
    <trip id="240" depart="1041.00" from="160807420" to="-23686088#1"/>
    <trip id="241" depart="1042.00" from="23283473" to="155723703#0"/>
    <trip id="242" depart="1044.00" from="-4936412" to="-23686088#0"/>
    <trip id="243" depart="1050.00" from="-23686088#1" to="8716827#0"/>
    <trip id="244" depart="1051.00" from="23686088#0" to="-23686088#1"/>
    <trip id="245" depart="1052.00" from="23686088#1" to="8716827#0"/>
    <trip id="246" depart="1053.00" from="23283473" to="-23686088#0"/>
    <trip id="247" depart="1054.00" from="-23686088#0" to="23686088#0"/>
    <trip id="248" depart="1056.00" from="160807420" to="23686088#1"/>
    <trip id="249" depart="1056.00" from="-23686088#0" to="133081987#0"/>
    <trip id="250" depart="1057.00" from="23283473" to="-23686088#0"/>
    <trip id="251" depart="1058.00" from="23686088#0" to="23686088#1"/>
    <trip id="252" depart="1061.00" from="-23686088#0" to="23686088#0"/>
    <trip id="253" depart="1065.00" from="160807420" to="133081987#0"/>
    <trip id="254" depart="1082.00" from="23686088#0" to="-23686088#0"/>
    <trip id="255" depart="1085.00" from="23283473" to="155723703#0"/>
    <trip id="256" depart="1088.00" from="23686088#1" to="23686088#0"/>
    <trip id="257" depart="1090.00" from="-23686088#1" to="155723703#0"/>
    <trip id="258" depart="1091.00" from="160807420" to="-23686088#1"/>
    <trip id="259" depart="1104.00" from="23686088#1" to="-23686088#1"/>
    <trip id="260" depart="1107.00" from="-23686088#0" to="23686088#1"/>
    <trip id="261" depart="1107.00" from="23686088#0" to="23686088#1"/>
    <trip id="262" depart="1108.00" from="-4936412" to="-23686088#1"/>
    <trip id="263" depart="1120.00" from="-133081987#2" to="23686088#1"/>
    <trip id="264" depart="1123.00" from="-23686088#0" to="133081987#0"/>
    <trip id="265" depart="1124.00" from="23283473" to="133081987#0"/>
    <trip id="266" depart="1125.00" from="-23686088#0" to="133081987#0"/>
    <trip id="267" depart="1131.00" from="23686088#1" to="23686088#1"/>
    <trip id="268" depart="1133.00" from="-4936412" to="155723703#0"/>
    <trip id="269" depart="1136.00" from="-4936412" to="23686088#0"/>
    <trip id="270" depart="1140.00" from="23686088#1" to="23686088#1"/>
    <trip id="271" depart="1141.00" from="160807420" to="23686088#1"/>
    <trip id="272" depart="1144.00" from="160807420" to="23686088#0"/>
    <trip id="273" depart="1148.00" from="-4936412" to="-23686088#1"/>
    <trip id="274" depart="1157.00" from="-4936412" to="133081987#0"/>
    <trip id="275" depart="1169.00" from="-23686088#0" to="-23686088#1"/>
    <trip id="276" depart="1173.00" from="23686088#1" to="155723703#0"/>
    <trip id="277" depart="1174.00" from="23283473" to="4936412"/>
    <trip id="278" depart="1180.00" from="23283473" to="155723703#0"/>
    <trip id="279" depart="1191.00" from="-23686088#1" to="4936412"/>
    <trip id="280" depart="1193.00" from="23686088#1" to="23686088#1"/>
    <trip id="281" depart="1194.00" from="-4936412" to="-23686088#1"/>
    <trip id="282" depart="1194.00" from="23686088#1" to="4936412"/>
    <trip id="283" depart="1197.00" from="-133081987#2" to="-23686088#1"/>
    <trip id="284" depart="1206.00" from="23686088#1" to="155723703#0"/>
    <trip id="285" depart="1207.00" from="23686088#1" to="23686088#1"/>
    <trip id="286" depart="1213.00" from="-133081987#2" to="-23686088#0"/>
    <trip id="287" depart="1214.00" from="-133081987#2" to="8716827#0"/>
    <trip id="288" depart="1221.00" from="23686088#1" to="133081987#0"/>
    <trip id="289" depart="1230.00" from="23686088#1" to="4936412"/>
    <trip id="290" depart="1234.00" from="-4936412" to="-23686088#1"/>
    <trip id="291" depart="1239.00" from="-133081987#2" to="4936412"/>
    <trip id="292" depart="1240.00" from="-133081987#2" to="4936412"/>
    <trip id="293" depart="1242.00" from="-23686088#0" to="23686088#1"/>
    <trip id="294" depart="1242.00" from="23283473" to="-23686088#1"/>
    <trip id="295" depart="1243.00" from="-23686088#1" to="4936412"/>
    <trip id="296" depart="1250.00" from="-133081987#2" to="4936412"/>
    <trip id="297" depart="1251.00" from="-4936412" to="-23686088#0"/>
    <trip id="298" depart="1255.00" from="-23686088#0" to="155723703#0"/>
    <trip id="299" depart="1256.00" from="-23686088#0" to="-23686088#0"/>
    <trip id="300" depart="1260.00" from="23283473" to="133081987#0"/>
    <trip id="301" depart="1262.00" from="23283473" to="8716827#0"/>
    <trip id="302" depart="1270.00" from="-23686088#0" to="4936412"/>
    <trip id="303" depart="1277.00" from="23686088#1" to="-23686088#0"/>
    <trip id="304" depart="1278.00" from="160807420" to="155723703#0"/>
    <trip id="305" depart="1279.00" from="23283473" to="8716827#0"/>
    <trip id="306" depart="1282.00" from="-4936412" to="4936412"/>
    <trip id="307" depart="1284.00" from="-4936412" to="133081987#0"/>
    <trip id="308" depart="1286.00" from="23686088#1" to="23686088#1"/>
    <trip id="309" depart="1307.00" from="-23686088#1" to="155723703#0"/>
    <trip id="310" depart="1310.00" from="-23686088#1" to="-23686088#1"/>
    <trip id="311" depart="1311.00" from="-23686088#1" to="133081987#0"/>
    <trip id="312" depart="1313.00" from="23283473" to="8716827#0"/>
    <trip id="313" depart="1319.00" from="23283473" to="23686088#0"/>
    <trip id="314" depart="1320.00" from="160807420" to="155723703#0"/>
    <trip id="315" depart="1332.00" from="23686088#0" to="4936412"/>
    <trip id="316" depart="1333.00" from="-133081987#2" to="133081987#0"/>
    <trip id="317" depart="1340.00" from="-23686088#1" to="8716827#0"/>
    <trip id="318" depart="1346.00" from="160807420" to="133081987#0"/>
    <trip id="319" depart="1353.00" from="23686088#0" to="-23686088#1"/>
    <trip id="320" depart="1356.00" from="-133081987#2" to="4936412"/>
    <trip id="321" depart="1357.00" from="-133081987#2" to="133081987#0"/>
    <trip id="322" depart="1362.00" from="-23686088#0" to="-23686088#1"/>
    <trip id="323" depart="1369.00" from="-23686088#1" to="-23686088#0"/>
    <trip id="324" depart="1382.00" from="-133081987#2" to="23686088#1"/>
    <trip id="325" depart="1387.00" from="-4936412" to="8716827#0"/>
    <trip id="326" depart="1388.00" from="160807420" to="4936412"/>
    <trip id="327" depart="1394.00" from="-133081987#2" to="4936412"/>
    <trip id="328" depart="1394.00" from="23686088#1" to="133081987#0"/>
    <trip id="329" depart="1398.00" from="-23686088#1" to="155723703#0"/>
    <trip id="330" depart="1404.00" from="23686088#1" to="155723703#0"/>
    <trip id="331" depart="1410.00" from="23283473" to="4936412"/>
    <trip id="332" depart="1420.00" from="-23686088#0" to="-23686088#1"/>
    <trip id="333" depart="1422.00" from="23686088#0" to="-23686088#0"/>
    <trip id="334" depart="1433.00" from="23686088#1" to="23686088#0"/>
    <trip id="335" depart="1441.00" from="23686088#0" to="4936412"/>
    <trip id="336" depart="1445.00" from="-133081987#2" to="23686088#1"/>
    <trip id="337" depart="1463.00" from="-23686088#0" to="133081987#0"/>
    <trip id="338" depart="1465.00" from="-23686088#1" to="-23686088#1"/>
    <trip id="339" depart="1467.00" from="-23686088#1" to="23686088#0"/>
    <trip id="340" depart="1471.00" from="-23686088#0" to="4936412"/>
    <trip id="341" depart="1476.00" from="-23686088#0" to="-23686088#1"/>
    <trip id="342" depart="1476.00" from="-23686088#1" to="23686088#1"/>
    <trip id="343" depart="1477.00" from="-23686088#1" to="23686088#1"/>
    <trip id="344" depart="1483.00" from="23283473" to="23686088#1"/>
    <trip id="345" depart="1486.00" from="23686088#1" to="23686088#1"/>
    <trip id="346" depart="1488.00" from="23283473" to="133081987#0"/>
    <trip id="347" depart="1488.00" from="-133081987#2" to="8716827#0"/>
    <trip id="348" depart="1496.00" from="-23686088#1" to="155723703#0"/>
    <trip id="349" depart="1500.00" from="-133081987#2" to="-23686088#0"/>
    <trip id="350" depart="1508.00" from="-133081987#2" to="-23686088#1"/>
    <trip id="351" depart="1512.00" from="-133081987#2" to="-23686088#0"/>
    <trip id="352" depart="1515.00" from="-23686088#0" to="-23686088#1"/>
    <trip id="353" depart="1518.00" from="-133081987#2" to="23686088#1"/>
    <trip id="354" depart="1524.00" from="-23686088#1" to="-23686088#1"/>
    <trip id="355" depart="1532.00" from="-133081987#2" to="8716827#0"/>
    <trip id="356" depart="1533.00" from="-133081987#2" to="155723703#0"/>
    <trip id="357" depart="1535.00" from="23686088#1" to="133081987#0"/>
    <trip id="358" depart="1539.00" from="-133081987#2" to="23686088#1"/>
    <trip id="359" depart="1548.00" from="-23686088#0" to="-23686088#0"/>
    <trip id="360" depart="1550.00" from="23686088#0" to="23686088#1"/>
    <trip id="361" depart="1551.00" from="23283473" to="23686088#1"/>
    <trip id="362" depart="1553.00" from="-23686088#1" to="23686088#0"/>
    <trip id="363" depart="1557.00" from="-23686088#1" to="23686088#1"/>
    <trip id="364" depart="1559.00" from="23686088#0" to="23686088#0"/>
    <trip id="365" depart="1561.00" from="-23686088#1" to="23686088#1"/>
    <trip id="366" depart="1561.00" from="23283473" to="-23686088#0"/>
    <trip id="367" depart="1568.00" from="23686088#1" to="155723703#0"/>
    <trip id="368" depart="1576.00" from="-23686088#0" to="133081987#0"/>
    <trip id="369" depart="1578.00" from="23686088#1" to="8716827#0"/>
    <trip id="370" depart="1589.00" from="160807420" to="-23686088#1"/>
    <trip id="371" depart="1590.00" from="23686088#0" to="-23686088#1"/>
    <trip id="372" depart="1592.00" from="23686088#0" to="-23686088#0"/>
    <trip id="373" depart="1596.00" from="-133081987#2" to="155723703#0"/>
    <trip id="374" depart="1600.00" from="-4936412" to="155723703#0"/>
    <trip id="375" depart="1606.00" from="-4936412" to="4936412"/>
    <trip id="376" depart="1606.00" from="23686088#1" to="155723703#0"/>
    <trip id="377" depart="1608.00" from="23283473" to="23686088#0"/>
    <trip id="378" depart="1614.00" from="23283473" to="23686088#1"/>
    <trip id="379" depart="1614.00" from="-4936412" to="8716827#0"/>
    <trip id="380" depart="1616.00" from="23686088#0" to="23686088#1"/>
    <trip id="381" depart="1619.00" from="-4936412" to="8716827#0"/>
    <trip id="382" depart="1619.00" from="-23686088#1" to="8716827#0"/>
    <trip id="383" depart="1630.00" from="23686088#1" to="155723703#0"/>
    <trip id="384" depart="1633.00" from="-23686088#0" to="-23686088#0"/>
    <trip id="385" depart="1634.00" from="23283473" to="8716827#0"/>
    <trip id="386" depart="1638.00" from="-23686088#1" to="4936412"/>
    <trip id="387" depart="1640.00" from="-133081987#2" to="133081987#0"/>
    <trip id="388" depart="1644.00" from="-4936412" to="4936412"/>
    <trip id="389" depart="1650.00" from="-23686088#1" to="155723703#0"/>
    <trip id="390" depart="1652.00" from="160807420" to="23686088#1"/>
    <trip id="391" depart="1653.00" from="160807420" to="4936412"/>
    <trip id="392" depart="1658.00" from="-23686088#0" to="-23686088#0"/>
    <trip id="393" depart="1661.00" from="-133081987#2" to="133081987#0"/>
    <trip id="394" depart="1662.00" from="-133081987#2" to="-23686088#1"/>
    <trip id="395" depart="1664.00" from="23686088#0" to="8716827#0"/>
    <trip id="396" depart="1664.00" from="23283473" to="155723703#0"/>
    <trip id="397" depart="1670.00" from="160807420" to="-23686088#1"/>
    <trip id="398" depart="1671.00" from="23686088#0" to="4936412"/>
    <trip id="399" depart="1677.00" from="-23686088#0" to="-23686088#1"/>
    <trip id="400" depart="1685.00" from="-23686088#0" to="-23686088#1"/>
    <trip id="401" depart="1688.00" from="-23686088#1" to="4936412"/>
    <trip id="402" depart="1696.00" from="23686088#0" to="4936412"/>
    <trip id="403" depart="1698.00" from="23686088#0" to="8716827#0"/>
    <trip id="404" depart="1703.00" from="23283473" to="155723703#0"/>
    <trip id="405" depart="1705.00" from="160807420" to="-23686088#1"/>
    <trip id="406" depart="1710.00" from="-23686088#0" to="-23686088#0"/>
    <trip id="407" depart="1724.00" from="-133081987#2" to="8716827#0"/>
    <trip id="408" depart="1727.00" from="-133081987#2" to="133081987#0"/>
    <trip id="409" depart="1729.00" from="23283473" to="-23686088#1"/>
    <trip id="410" depart="1732.00" from="-133081987#2" to="4936412"/>
    <trip id="411" depart="1750.00" from="-23686088#1" to="133081987#0"/>
    <trip id="412" depart="1751.00" from="23686088#1" to="23686088#0"/>
    <trip id="413" depart="1754.00" from="23686088#0" to="133081987#0"/>
    <trip id="414" depart="1757.00" from="23686088#0" to="-23686088#0"/>
    <trip id="415" depart="1765.00" from="-4936412" to="4936412"/>