<?xml version="1.0" encoding="UTF-8"?>

<!-- generated on 2025-03-14 18:47:55.205370 by randomTrips.py v1_22_0+0449-9311ec3459f
<configuration>
    <net-file value="random_grid_1.net.xml"/>
    <output-trip-file value="random_grid_1_medium.trips.xml"/>
    <fringe-factor value="100"/>
    <validate value="True"/>
    <period value="4.0"/>
    <random-depart value="True"/>
    <binomial value="10"/>
</configuration>
-->

<!-- generated on 2025-03-14 18:47:55 by Eclipse SUMO duarouter Version v1_22_0+0449-9311ec3459f
<duarouterConfiguration xmlns:xsi="http://www.w3.org/2001/XMLSchema-instance" xsi:noNamespaceSchemaLocation="http://sumo.dlr.de/xsd/duarouterConfiguration.xsd">

    <input>
        <net-file value="random_grid_1.net.xml"/>
        <route-files value="random_grid_1_medium.trips.xml"/>
    </input>

    <output>
        <output-file value="random_grid_1_medium.trips.xml.tmp"/>
        <alternatives-output value="NUL"/>
        <write-trips value="true"/>
    </output>

    <time>
        <begin value="0.0"/>
        <end value="3600.0"/>
    </time>

    <report>
        <no-warnings value="true"/>
        <ignore-errors value="true"/>
        <no-step-log value="true"/>
    </report>

</duarouterConfiguration>
-->

<routes xmlns:xsi="http://www.w3.org/2001/XMLSchema-instance" xsi:noNamespaceSchemaLocation="http://sumo.dlr.de/xsd/routes_file.xsd">
    <trip id="0" depart="1.00" from="-5" to="3"/>
    <trip id="1" depart="9.00" from="-3" to="3"/>
    <trip id="2" depart="12.00" from="-15" to="11"/>
    <trip id="3" depart="26.00" from="-5" to="15"/>
    <trip id="4" depart="28.00" from="-5" to="3"/>
    <trip id="5" depart="28.00" from="-11" to="5"/>
    <trip id="6" depart="31.00" from="-3" to="15"/>
    <trip id="7" depart="32.00" from="-11" to="15"/>
    <trip id="8" depart="35.00" from="-5" to="3"/>
    <trip id="9" depart="37.00" from="-15" to="15"/>
    <trip id="10" depart="39.00" from="-11" to="15"/>
    <trip id="11" depart="40.00" from="-5" to="5"/>
    <trip id="12" depart="45.00" from="-15" to="5"/>
    <trip id="13" depart="49.00" from="-3" to="5"/>
    <trip id="14" depart="50.00" from="-11" to="11"/>
    <trip id="15" depart="56.00" from="-5" to="11"/>
    <trip id="16" depart="60.00" from="-3" to="15"/>
    <trip id="17" depart="65.00" from="-15" to="3"/>
    <trip id="18" depart="84.00" from="-5" to="5"/>
    <trip id="19" depart="91.00" from="-3" to="15"/>
    <trip id="20" depart="97.00" from="-5" to="11"/>
    <trip id="21" depart="98.00" from="-5" to="11"/>
    <trip id="22" depart="99.00" from="-5" to="11"/>
    <trip id="23" depart="108.00" from="-5" to="3"/>
    <trip id="24" depart="112.00" from="-15" to="11"/>
    <trip id="25" depart="112.00" from="-3" to="11"/>
    <trip id="26" depart="113.00" from="-5" to="5"/>
    <trip id="27" depart="113.00" from="-15" to="5"/>
    <trip id="28" depart="133.00" from="-11" to="15"/>
    <trip id="29" depart="135.00" from="-3" to="11"/>
    <trip id="30" depart="136.00" from="-5" to="15"/>
    <trip id="31" depart="159.00" from="-5" to="3"/>
    <trip id="32" depart="167.00" from="-15" to="11"/>
    <trip id="33" depart="174.00" from="-3" to="5"/>
    <trip id="34" depart="176.00" from="-3" to="11"/>
    <trip id="35" depart="180.00" from="-3" to="3"/>
    <trip id="36" depart="188.00" from="-11" to="15"/>
    <trip id="37" depart="190.00" from="-11" to="11"/>
    <trip id="38" depart="197.00" from="-5" to="5"/>
    <trip id="39" depart="203.00" from="-3" to="15"/>
    <trip id="40" depart="204.00" from="-3" to="11"/>
    <trip id="41" depart="204.00" from="-5" to="3"/>
    <trip id="42" depart="206.00" from="-11" to="15"/>
    <trip id="43" depart="213.00" from="-15" to="15"/>
    <trip id="44" depart="224.00" from="-15" to="3"/>
    <trip id="45" depart="225.00" from="-11" to="15"/>
    <trip id="46" depart="233.00" from="-11" to="5"/>
    <trip id="47" depart="242.00" from="-5" to="3"/>
    <trip id="48" depart="244.00" from="-5" to="11"/>
    <trip id="49" depart="246.00" from="-15" to="11"/>
    <trip id="50" depart="246.00" from="-3" to="5"/>
    <trip id="51" depart="248.00" from="-3" to="15"/>
    <trip id="52" depart="253.00" from="-11" to="15"/>
    <trip id="53" depart="262.00" from="-11" to="3"/>
    <trip id="54" depart="264.00" from="-15" to="11"/>
    <trip id="55" depart="264.00" from="-3" to="5"/>
    <trip id="56" depart="271.00" from="-5" to="5"/>
    <trip id="57" depart="272.00" from="-11" to="5"/>
    <trip id="58" depart="280.00" from="-5" to="11"/>
    <trip id="59" depart="281.00" from="-3" to="5"/>
    <trip id="60" depart="287.00" from="-15" to="3"/>
    <trip id="61" depart="301.00" from="-5" to="15"/>
    <trip id="62" depart="308.00" from="-5" to="5"/>
    <trip id="63" depart="308.00" from="-5" to="3"/>
    <trip id="64" depart="308.00" from="-15" to="5"/>
    <trip id="65" depart="318.00" from="-15" to="5"/>
    <trip id="66" depart="319.00" from="-15" to="5"/>
    <trip id="67" depart="323.00" from="-3" to="15"/>
    <trip id="68" depart="327.00" from="-3" to="5"/>
    <trip id="69" depart="337.00" from="-11" to="3"/>
    <trip id="70" depart="351.00" from="-15" to="3"/>
    <trip id="71" depart="357.00" from="-3" to="15"/>
    <trip id="72" depart="359.00" from="-11" to="3"/>
    <trip id="73" depart="362.00" from="-3" to="3"/>
    <trip id="74" depart="365.00" from="-3" to="3"/>
    <trip id="75" depart="369.00" from="-11" to="11"/>
    <trip id="76" depart="371.00" from="-3" to="11"/>
    <trip id="77" depart="379.00" from="-11" to="3"/>
    <trip id="78" depart="381.00" from="-3" to="3"/>
    <trip id="79" depart="387.00" from="-3" to="3"/>
    <trip id="80" depart="391.00" from="-11" to="11"/>
    <trip id="81" depart="393.00" from="-11" to="5"/>
    <trip id="82" depart="398.00" from="-5" to="11"/>
    <trip id="83" depart="404.00" from="-11" to="3"/>
    <trip id="84" depart="409.00" from="-11" to="5"/>
    <trip id="85" depart="412.00" from="-3" to="3"/>
    <trip id="86" depart="417.00" from="-5" to="5"/>
    <trip id="87" depart="418.00" from="-5" to="5"/>
    <trip id="88" depart="418.00" from="-15" to="15"/>
    <trip id="89" depart="418.00" from="-15" to="15"/>
    <trip id="90" depart="421.00" from="-11" to="3"/>
    <trip id="91" depart="426.00" from="-11" to="5"/>
    <trip id="92" depart="431.00" from="-3" to="15"/>
    <trip id="93" depart="431.00" from="-5" to="5"/>
    <trip id="94" depart="441.00" from="-5" to="3"/>
    <trip id="95" depart="445.00" from="-5" to="15"/>
    <trip id="96" depart="449.00" from="-15" to="5"/>
    <trip id="97" depart="451.00" from="-3" to="11"/>
    <trip id="98" depart="451.00" from="-11" to="3"/>
    <trip id="99" depart="452.00" from="-3" to="3"/>
    <trip id="100" depart="453.00" from="-15" to="15"/>
    <trip id="101" depart="453.00" from="-5" to="3"/>
    <trip id="102" depart="454.00" from="-11" to="3"/>
    <trip id="103" depart="463.00" from="-15" to="15"/>
    <trip id="104" depart="472.00" from="-5" to="11"/>
    <trip id="105" depart="479.00" from="-11" to="3"/>
    <trip id="106" depart="480.00" from="-11" to="15"/>
    <trip id="107" depart="481.00" from="-3" to="15"/>
    <trip id="108" depart="486.00" from="-15" to="3"/>
    <trip id="109" depart="488.00" from="-5" to="3"/>
    <trip id="110" depart="490.00" from="-3" to="3"/>
    <trip id="111" depart="500.00" from="-11" to="11"/>
    <trip id="112" depart="502.00" from="-5" to="15"/>
    <trip id="113" depart="505.00" from="-3" to="15"/>
    <trip id="114" depart="512.00" from="-11" to="11"/>
    <trip id="115" depart="516.00" from="-5" to="15"/>
    <trip id="116" depart="519.00" from="-11" to="11"/>
    <trip id="117" depart="519.00" from="-11" to="5"/>
    <trip id="118" depart="526.00" from="-5" to="5"/>
    <trip id="119" depart="536.00" from="-15" to="11"/>
    <trip id="120" depart="538.00" from="-11" to="11"/>
    <trip id="121" depart="547.00" from="-5" to="11"/>
    <trip id="122" depart="548.00" from="-3" to="5"/>
    <trip id="123" depart="549.00" from="-15" to="5"/>
    <trip id="124" depart="563.00" from="-3" to="5"/>
    <trip id="125" depart="565.00" from="-3" to="15"/>
    <trip id="126" depart="571.00" from="-15" to="5"/>
    <trip id="127" depart="576.00" from="-3" to="15"/>
    <trip id="128" depart="583.00" from="-11" to="11"/>
    <trip id="129" depart="599.00" from="-15" to="15"/>
    <trip id="130" depart="604.00" from="-3" to="5"/>
    <trip id="131" depart="609.00" from="-5" to="11"/>
    <trip id="132" depart="613.00" from="-5" to="3"/>
    <trip id="133" depart="626.00" from="-11" to="15"/>
    <trip id="134" depart="636.00" from="-5" to="3"/>
    <trip id="135" depart="646.00" from="-11" to="11"/>
    <trip id="136" depart="648.00" from="-11" to="11"/>
    <trip id="137" depart="649.00" from="-11" to="11"/>
    <trip id="138" depart="650.00" from="-3" to="3"/>
    <trip id="139" depart="652.00" from="-15" to="11"/>
    <trip id="140" depart="656.00" from="-5" to="15"/>
    <trip id="141" depart="663.00" from="-5" to="5"/>
    <trip id="142" depart="665.00" from="-15" to="3"/>
    <trip id="143" depart="681.00" from="-5" to="11"/>
    <trip id="144" depart="682.00" from="-15" to="15"/>
    <trip id="145" depart="688.00" from="-15" to="5"/>
    <trip id="146" depart="688.00" from="-5" to="15"/>
    <trip id="147" depart="691.00" from="-3" to="3"/>
    <trip id="148" depart="691.00" from="-15" to="5"/>
    <trip id="149" depart="694.00" from="-15" to="5"/>
    <trip id="150" depart="694.00" from="-15" to="5"/>
    <trip id="151" depart="700.00" from="-11" to="11"/>
    <trip id="152" depart="705.00" from="-15" to="5"/>
    <trip id="153" depart="708.00" from="-3" to="3"/>
    <trip id="154" depart="711.00" from="-11" to="11"/>
    <trip id="155" depart="713.00" from="-5" to="5"/>
    <trip id="156" depart="713.00" from="-3" to="15"/>
    <trip id="157" depart="724.00" from="-15" to="5"/>
    <trip id="158" depart="727.00" from="-5" to="5"/>
    <trip id="159" depart="728.00" from="-5" to="5"/>
    <trip id="160" depart="733.00" from="-11" to="11"/>
    <trip id="161" depart="739.00" from="-11" to="5"/>
    <trip id="162" depart="740.00" from="-11" to="15"/>
    <trip id="163" depart="742.00" from="-5" to="5"/>
    <trip id="164" depart="751.00" from="-5" to="15"/>
    <trip id="165" depart="752.00" from="-5" to="11"/>
    <trip id="166" depart="755.00" from="-15" to="5"/>
    <trip id="167" depart="757.00" from="-3" to="3"/>
    <trip id="168" depart="761.00" from="-5" to="3"/>
    <trip id="169" depart="764.00" from="-11" to="3"/>
    <trip id="170" depart="767.00" from="-3" to="5"/>
    <trip id="171" depart="768.00" from="-3" to="5"/>
    <trip id="172" depart="771.00" from="-15" to="11"/>
    <trip id="173" depart="779.00" from="-11" to="3"/>
    <trip id="174" depart="787.00" from="-3" to="3"/>
    <trip id="175" depart="791.00" from="-3" to="3"/>
    <trip id="176" depart="792.00" from="-3" to="3"/>
    <trip id="177" depart="795.00" from="-15" to="5"/>
    <trip id="178" depart="801.00" from="-15" to="5"/>
    <trip id="179" depart="804.00" from="-3" to="11"/>
    <trip id="180" depart="813.00" from="-5" to="11"/>
    <trip id="181" depart="818.00" from="-11" to="3"/>
    <trip id="182" depart="824.00" from="-3" to="5"/>
    <trip id="183" depart="829.00" from="-3" to="3"/>
    <trip id="184" depart="833.00" from="-15" to="3"/>
    <trip id="185" depart="838.00" from="-11" to="11"/>
    <trip id="186" depart="839.00" from="-5" to="5"/>
    <trip id="187" depart="840.00" from="-5" to="5"/>
    <trip id="188" depart="842.00" from="-15" to="11"/>
    <trip id="189" depart="846.00" from="-5" to="11"/>
    <trip id="190" depart="849.00" from="-5" to="11"/>
    <trip id="191" depart="854.00" from="-5" to="3"/>
    <trip id="192" depart="859.00" from="-15" to="15"/>
    <trip id="193" depart="869.00" from="-5" to="15"/>
    <trip id="194" depart="875.00" from="-5" to="3"/>
    <trip id="195" depart="877.00" from="-15" to="5"/>
    <trip id="196" depart="879.00" from="-5" to="11"/>
    <trip id="197" depart="884.00" from="-15" to="11"/>
    <trip id="198" depart="885.00" from="-11" to="15"/>
    <trip id="199" depart="892.00" from="-11" to="5"/>
    <trip id="200" depart="893.00" from="-11" to="3"/>
    <trip id="201" depart="894.00" from="-3" to="11"/>
    <trip id="202" depart="900.00" from="-15" to="15"/>
    <trip id="203" depart="906.00" from="-11" to="15"/>
    <trip id="204" depart="911.00" from="-11" to="5"/>
    <trip id="205" depart="920.00" from="-15" to="15"/>
    <trip id="206" depart="923.00" from="-15" to="3"/>
    <trip id="207" depart="924.00" from="-5" to="5"/>
    <trip id="208" depart="928.00" from="-11" to="15"/>
    <trip id="209" depart="929.00" from="-15" to="15"/>
    <trip id="210" depart="935.00" from="-5" to="5"/>
    <trip id="211" depart="938.00" from="-15" to="3"/>
    <trip id="212" depart="938.00" from="-3" to="11"/>
    <trip id="213" depart="942.00" from="-15" to="3"/>
    <trip id="214" depart="959.00" from="-11" to="5"/>
    <trip id="215" depart="962.00" from="-3" to="5"/>
    <trip id="216" depart="971.00" from="-5" to="5"/>
    <trip id="217" depart="986.00" from="-11" to="15"/>
    <trip id="218" depart="995.00" from="-5" to="11"/>
    <trip id="219" depart="999.00" from="-11" to="15"/>
    <trip id="220" depart="1000.00" from="-11" to="3"/>
    <trip id="221" depart="1007.00" from="-3" to="5"/>
    <trip id="222" depart="1009.00" from="-5" to="11"/>
    <trip id="223" depart="1011.00" from="-5" to="3"/>
    <trip id="224" depart="1012.00" from="-15" to="11"/>
    <trip id="225" depart="1013.00" from="-15" to="15"/>
    <trip id="226" depart="1016.00" from="-3" to="5"/>
    <trip id="227" depart="1021.00" from="-15" to="11"/>
    <trip id="228" depart="1031.00" from="-15" to="3"/>
    <trip id="229" depart="1031.00" from="-15" to="11"/>
    <trip id="230" depart="1035.00" from="-5" to="5"/>
    <trip id="231" depart="1037.00" from="-15" to="15"/>
    <trip id="232" depart="1045.00" from="-15" to="15"/>
    <trip id="233" depart="1045.00" from="-5" to="15"/>
    <trip id="234" depart="1049.00" from="-11" to="5"/>
    <trip id="235" depart="1056.00" from="-15" to="3"/>
    <trip id="236" depart="1060.00" from="-15" to="3"/>
    <trip id="237" depart="1063.00" from="-5" to="15"/>
    <trip id="238" depart="1066.00" from="-15" to="11"/>
    <trip id="239" depart="1066.00" from="-15" to="11"/>
    <trip id="240" depart="1067.00" from="-15" to="15"/>
    <trip id="241" depart="1070.00" from="-5" to="3"/>
    <trip id="242" depart="1079.00" from="-11" to="3"/>
    <trip id="243" depart="1080.00" from="-15" to="3"/>
    <trip id="244" depart="1088.00" from="-5" to="15"/>
    <trip id="245" depart="1095.00" from="-5" to="3"/>
    <trip id="246" depart="1102.00" from="-3" to="11"/>
    <trip id="247" depart="1107.00" from="-5" to="11"/>
    <trip id="248" depart="1108.00" from="-11" to="15"/>
    <trip id="249" depart="1109.00" from="-15" to="11"/>
    <trip id="250" depart="1112.00" from="-3" to="11"/>
    <trip id="251" depart="1113.00" from="-11" to="15"/>
    <trip id="252" depart="1119.00" from="-5" to="15"/>
    <trip id="253" depart="1125.00" from="-5" to="11"/>
    <trip id="254" depart="1135.00" from="-3" to="15"/>
    <trip id="255" depart="1138.00" from="-15" to="3"/>
    <trip id="256" depart="1141.00" from="-11" to="15"/>
    <trip id="257" depart="1150.00" from="-5" to="11"/>
    <trip id="258" depart="1158.00" from="-11" to="11"/>
    <trip id="259" depart="1166.00" from="-3" to="3"/>
    <trip id="260" depart="1170.00" from="-3" to="5"/>
    <trip id="261" depart="1170.00" from="-15" to="11"/>
    <trip id="262" depart="1178.00" from="-11" to="3"/>
    <trip id="263" depart="1182.00" from="-5" to="11"/>
    <trip id="264" depart="1182.00" from="-11" to="5"/>
    <trip id="265" depart="1196.00" from="-5" to="11"/>
    <trip id="266" depart="1203.00" from="-5" to="11"/>
    <trip id="267" depart="1207.00" from="-3" to="5"/>
    <trip id="268" depart="1209.00" from="-5" to="15"/>
    <trip id="269" depart="1212.00" from="-15" to="5"/>
    <trip id="270" depart="1215.00" from="-11" to="5"/>
    <trip id="271" depart="1217.00" from="-5" to="11"/>
    <trip id="272" depart="1218.00" from="-11" to="11"/>
    <trip id="273" depart="1221.00" from="-3" to="11"/>
    <trip id="274" depart="1224.00" from="-11" to="15"/>
    <trip id="275" depart="1225.00" from="-5" to="3"/>
    <trip id="276" depart="1226.00" from="-15" to="15"/>
    <trip id="277" depart="1228.00" from="-15" to="11"/>
    <trip id="278" depart="1231.00" from="-3" to="11"/>
    <trip id="279" depart="1235.00" from="-15" to="11"/>
    <trip id="280" depart="1243.00" from="-5" to="15"/>
    <trip id="281" depart="1244.00" from="-3" to="3"/>
    <trip id="282" depart="1250.00" from="-11" to="11"/>
    <trip id="283" depart="1250.00" from="-15" to="11"/>
    <trip id="284" depart="1253.00" from="-3" to="11"/>
    <trip id="285" depart="1254.00" from="-5" to="3"/>
    <trip id="286" depart="1264.00" from="-5" to="3"/>
    <trip id="287" depart="1265.00" from="-11" to="11"/>
    <trip id="288" depart="1270.00" from="-11" to="5"/>
    <trip id="289" depart="1272.00" from="-5" to="5"/>
    <trip id="290" depart="1274.00" from="-3" to="3"/>
    <trip id="291" depart="1278.00" from="-11" to="5"/>
    <trip id="292" depart="1278.00" from="-5" to="11"/>
    <trip id="293" depart="1291.00" from="-11" to="5"/>
    <trip id="294" depart="1294.00" from="-15" to="3"/>
    <trip id="295" depart="1301.00" from="-5" to="11"/>
    <trip id="296" depart="1307.00" from="-5" to="5"/>
    <trip id="297" depart="1308.00" from="-3" to="11"/>
    <trip id="298" depart="1309.00" from="-15" to="5"/>
    <trip id="299" depart="1312.00" from="-15" to="3"/>
    <trip id="300" depart="1313.00" from="-11" to="15"/>
    <trip id="301" depart="1316.00" from="-11" to="3"/>
    <trip id="302" depart="1316.00" from="-15" to="5"/>
    <trip id="303" depart="1320.00" from="-11" to="5"/>
    <trip id="304" depart="1328.00" from="-3" to="15"/>
    <trip id="305" depart="1329.00" from="-11" to="11"/>
    <trip id="306" depart="1338.00" from="-5" to="5"/>
    <trip id="307" depart="1340.00" from="-15" to="5"/>
    <trip id="308" depart="1347.00" from="-11" to="3"/>
    <trip id="309" depart="1349.00" from="-11" to="5"/>
    <trip id="310" depart="1355.00" from="-15" to="5"/>
    <trip id="311" depart="1358.00" from="-5" to="15"/>
    <trip id="312" depart="1364.00" from="-11" to="3"/>
    <trip id="313" depart="1364.00" from="-3" to="15"/>
    <trip id="314" depart="1369.00" from="-11" to="11"/>
    <trip id="315" depart="1376.00" from="-5" to="15"/>
    <trip id="316" depart="1377.00" from="-11" to="11"/>
    <trip id="317" depart="1383.00" from="-3" to="5"/>
    <trip id="318" depart="1395.00" from="-11" to="3"/>
    <trip id="319" depart="1395.00" from="-5" to="11"/>
    <trip id="320" depart="1399.00" from="-15" to="11"/>
    <trip id="321" depart="1402.00" from="-3" to="3"/>
    <trip id="322" depart="1403.00" from="-3" to="15"/>
    <trip id="323" depart="1409.00" from="-11" to="15"/>
    <trip id="324" depart="1415.00" from="-11" to="5"/>
    <trip id="325" depart="1417.00" from="-3" to="11"/>
    <trip id="326" depart="1422.00" from="-11" to="11"/>
    <trip id="327" depart="1427.00" from="-5" to="3"/>
    <trip id="328" depart="1433.00" from="-3" to="11"/>
    <trip id="329" depart="1435.00" from="-5" to="15"/>
    <trip id="330" depart="1435.00" from="-15" to="15"/>
    <trip id="331" depart="1440.00" from="-3" to="3"/>
    <trip id="332" depart="1443.00" from="-15" to="15"/>
    <trip id="333" depart="1445.00" from="-5" to="3"/>
    <trip id="334" depart="1454.00" from="-5" to="3"/>
    <trip id="335" depart="1456.00" from="-3" to="11"/>
    <trip id="336" depart="1457.00" from="-15" to="5"/>
    <trip id="337" depart="1459.00" from="-11" to="5"/>
    <trip id="338" depart="1465.00" from="-3" to="3"/>
    <trip id="339" depart="1472.00" from="-15" to="15"/>
    <trip id="340" depart="1484.00" from="-15" to="11"/>
    <trip id="341" depart="1486.00" from="-15" to="3"/>
    <trip id="342" depart="1488.00" from="-15" to="11"/>
    <trip id="343" depart="1488.00" from="-11" to="11"/>
    <trip id="344" depart="1489.00" from="-11" to="15"/>
    <trip id="345" depart="1504.00" from="-11" to="3"/>
    <trip id="346" depart="1505.00" from="-15" to="15"/>
    <trip id="347" depart="1505.00" from="-15" to="15"/>
    <trip id="348" depart="1511.00" from="-3" to="5"/>
    <trip id="349" depart="1513.00" from="-11" to="5"/>
    <trip id="350" depart="1516.00" from="-11" to="11"/>
    <trip id="351" depart="1524.00" from="-3" to="11"/>
    <trip id="352" depart="1525.00" from="-11" to="3"/>
    <trip id="353" depart="1528.00" from="-3" to="3"/>
    <trip id="354" depart="1529.00" from="-11" to="5"/>
    <trip id="355" depart="1533.00" from="-3" to="5"/>
    <trip id="356" depart="1539.00" from="-11" to="5"/>
    <trip id="357" depart="1546.00" from="-3" to="11"/>
    <trip id="358" depart="1551.00" from="-11" to="5"/>
    <trip id="359" depart="1562.00" from="-5" to="15"/>
    <trip id="360" depart="1568.00" from="-15" to="3"/>
    <trip id="361" depart="1569.00" from="-5" to="15"/>
    <trip id="362" depart="1578.00" from="-5" to="5"/>
    <trip id="363" depart="1581.00" from="-3" to="5"/>
    <trip id="364" depart="1587.00" from="-11" to="5"/>
    <trip id="365" depart="1587.00" from="-3" to="15"/>
    <trip id="366" depart="1588.00" from="-11" to="15"/>
    <trip id="367" depart="1591.00" from="-5" to="15"/>
    <trip id="368" depart="1592.00" from="-3" to="15"/>
    <trip id="369" depart="1592.00" from="-3" to="5"/>
    <trip id="370" depart="1594.00" from="-5" to="5"/>
    <trip id="371" depart="1597.00" from="-3" to="11"/>
    <trip id="372" depart="1598.00" from="-5" to="3"/>
    <trip id="373" depart="1598.00" from="-5" to="5"/>
    <trip id="374" depart="1603.00" from="-3" to="11"/>
    <trip id="375" depart="1605.00" from="-11" to="3"/>
    <trip id="376" depart="1609.00" from="-5" to="15"/>
    <trip id="377" depart="1620.00" from="-15" to="15"/>
    <trip id="378" depart="1621.00" from="-3" to="15"/>
    <trip id="379" depart="1621.00" from="-11" to="11"/>
    <trip id="380" depart="1625.00" from="-15" to="5"/>
    <trip id="381" depart="1626.00" from="-3" to="3"/>
    <trip id="382" depart="1626.00" from="-15" to="5"/>
    <trip id="383" depart="1631.00" from="-15" to="15"/>
    <trip id="384" depart="1634.00" from="-5" to="3"/>
    <trip id="385" depart="1638.00" from="-3" to="11"/>
    <trip id="386" depart="1647.00" from="-11" to="3"/>
    <trip id="387" depart="1647.00" from="-11" to="11"/>
    <trip id="388" depart="1650.00" from="-11" to="3"/>
    <trip id="389" depart="1656.00" from="-3" to="15"/>
    <trip id="390" depart="1670.00" from="-3" to="3"/>
    <trip id="391" depart="1681.00" from="-15" to="15"/>
    <trip id="392" depart="1691.00" from="-3" to="11"/>
    <trip id="393" depart="1694.00" from="-5" to="11"/>
    <trip id="394" depart="1694.00" from="-11" to="15"/>
    <trip id="395" depart="1695.00" from="-3" to="3"/>
    <trip id="396" depart="1701.00" from="-15" to="3"/>
    <trip id="397" depart="1711.00" from="-5" to="3"/>
    <trip id="398" depart="1719.00" from="-11" to="15"/>
    <trip id="399" depart="1725.00" from="-5" to="11"/>
    <trip id="400" depart="1728.00" from="-15" to="11"/>
    <trip id="401" depart="1737.00" from="-5" to="11"/>
    <trip id="402" depart="1738.00" from="-3" to="11"/>
    <trip id="403" depart="1739.00" from="-3" to="3"/>
    <trip id="404" depart="1739.00" from="-11" to="5"/>
    <trip id="405" depart="1748.00" from="-5" to="11"/>
    <trip id="406" depart="1749.00" from="-5" to="11"/>
    <trip id="407" depart="1755.00" from="-3" to="11"/>
    <trip id="408" depart="1755.00" from="-11" to="5"/>
    <trip id="409" depart="1756.00" from="-3" to="15"/>
    <trip id="410" depart="1762.00" from="-5" to="15"/>
    <trip id="411" depart="1763.00" from="-5" to="3"/>
    <trip id="412" depart="1767.00" from="-15" to="15"/>
    <trip id="413" depart="1768.00" from="-15" to="15"/>
    <trip id="414" depart="1774.00" from="-5" to="3"/>
    <trip id="415" depart="1777.00" from="-5" to="15"/>
    <trip id="416" depart="1778.00" from="-11" to="15"/>
    <trip id="417" depart="1784.00" from="-5" to="5"/>
    <trip id="418" depart="1793.00" from="-5" to="15"/>
    <trip id="419" depart="1803.00" from="-15" to="3"/>
    <trip id="420" depart="1806.00" from="-5" to="3"/>
    <trip id="421" depart="1808.00" from="-3" to="11"/>
    <trip id="422" depart="1809.00" from="-5" to="3"/>
    <trip id="423" depart="1816.00" from="-5" to="15"/>
    <trip id="424" depart="1818.00" from="-11" to="15"/>
    <trip id="425" depart="1821.00" from="-11" to="3"/>
    <trip id="426" depart="1822.00" from="-5" to="5"/>
    <trip id="427" depart="1828.00" from="-5" to="11"/>
    <trip id="428" depart="1834.00" from="-15" to="3"/>
    <trip id="429" depart="1837.00" from="-5" to="15"/>
    <trip id="430" depart="1838.00" from="-15" to="11"/>
    <trip id="431" depart="1839.00" from="-15" to="11"/>
    <trip id="432" depart="1841.00" from="-5" to="11"/>
    <trip id="433" depart="1845.00" from="-3" to="15"/>
    <trip id="434" depart="1848.00" from="-11" to="11"/>
    <trip id="435" depart="1849.00" from="-5" to="11"/>
    <trip id="436" depart="1849.00" from="-3" to="11"/>
    <trip id="437" depart="1850.00" from="-3" to="3"/>
    <trip id="438" depart="1850.00" from="-5" to="5"/>
    <trip id="439" depart="1856.00" from="-15" to="15"/>
    <trip id="440" depart="1860.00" from="-15" to="11"/>
    <trip id="441" depart="1862.00" from="-3" to="5"/>
    <trip id="442" depart="1862.00" from="-11" to="3"/>
    <trip id="443" depart="1866.00" from="-15" to="3"/>
    <trip id="444" depart="1875.00" from="-3" to="11"/>
    <trip id="445" depart="1876.00" from="-5" to="5"/>
    <trip id="446" depart="1878.00" from="-5" to="15"/>
    <trip id="447" depart="1883.00" from="-11" to="11"/>
    <trip id="448" depart="1883.00" from="-5" to="3"/>
    <trip id="449" depart="1884.00" from="-11" to="15"/>
    <trip id="450" depart="1886.00" from="-5" to="3"/>
    <trip id="451" depart="1887.00" from="-3" to="3"/>
    <trip id="452" depart="1889.00" from="-5" to="3"/>
    <trip id="453" depart="1890.00" from="-5" to="11"/>
    <trip id="454" depart="1892.00" from="-5" to="3"/>
    <trip id="455" depart="1901.00" from="-11" to="15"/>
    <trip id="456" depart="1903.00" from="-3" to="15"/>
    <trip id="457" depart="1907.00" from="-11" to="3"/>
    <trip id="458" depart="1917.00" from="-11" to="3"/>
    <trip id="459" depart="1921.00" from="-3" to="3"/>
    <trip id="460" depart="1921.00" from="-3" to="5"/>
    <trip id="461" depart="1922.00" from="-11" to="11"/>
    <trip id="462" depart="1924.00" from="-11" to="15"/>
    <trip id="463" depart="1927.00" from="-3" to="15"/>
    <trip id="464" depart="1940.00" from="-3" to="15"/>
    <trip id="465" depart="1946.00" from="-11" to="11"/>
    <trip id="466" depart="1947.00" from="-11" to="5"/>
    <trip id="467" depart="1949.00" from="-3" to="11"/>
    <trip id="468" depart="1950.00" from="-5" to="3"/>
    <trip id="469" depart="1957.00" from="-15" to="3"/>
    <trip id="470" depart="1958.00" from="-5" to="3"/>
    <trip id="471" depart="1963.00" from="-3" to="15"/>
    <trip id="472" depart="1965.00" from="-15" to="3"/>
    <trip id="473" depart="1968.00" from="-3" to="15"/>
    <trip id="474" depart="1970.00" from="-11" to="5"/>
    <trip id="475" depart="1974.00" from="-15" to="5"/>
    <trip id="476" depart="1975.00" from="-15" to="3"/>
    <trip id="477" depart="1977.00" from="-3" to="5"/>
    <trip id="478" depart="1979.00" from="-5" to="5"/>
    <trip id="479" depart="1981.00" from="-11" to="3"/>
    <trip id="480" depart="1983.00" from="-11" to="11"/>
    <trip id="481" depart="1983.00" from="-3" to="15"/>
    <trip id="482" depart="1985.00" from="-11" to="3"/>
    <trip id="483" depart="1986.00" from="-11" to="5"/>
    <trip id="484" depart="1987.00" from="-5" to="15"/>
    <trip id="485" depart="1993.00" from="-15" to="11"/>
    <trip id="486" depart="2005.00" from="-11" to="5"/>
    <trip id="487" depart="2006.00" from="-15" to="15"/>
    <trip id="488" depart="2009.00" from="-15" to="15"/>
    <trip id="489" depart="2012.00" from="-15" to="3"/>
    <trip id="490" depart="2013.00" from="-11" to="5"/>
    <trip id="491" depart="2014.00" from="-15" to="5"/>
    <trip id="492" depart="2014.00" from="-5" to="3"/>
    <trip id="493" depart="2014.00" from="-11" to="15"/>
    <trip id="494" depart="2016.00" from="-15" to="3"/>
    <trip id="495" depart="2022.00" from="-15" to="15"/>
    <trip id="496" depart="2027.00" from="-11" to="3"/>
    <trip id="497" depart="2027.00" from="-3" to="11"/>
    <trip id="498" depart="2032.00" from="-3" to="3"/>
    <trip id="499" depart="2034.00" from="-5" to="15"/>
    <trip id="500" depart="2035.00" from="-11" to="5"/>
    <trip id="501" depart="2035.00" from="-15" to="3"/>
    <trip id="502" depart="2040.00" from="-3" to="11"/>
    <trip id="503" depart="2041.00" from="-3" to="3"/>
    <trip id="504" depart="2046.00" from="-3" to="15"/>
    <trip id="505" depart="2048.00" from="-5" to="5"/>
    <trip id="506" depart="2050.00" from="-3" to="11"/>
    <trip id="507" depart="2059.00" from="-3" to="11"/>
    <trip id="508" depart="2063.00" from="-3" to="3"/>
    <trip id="509" depart="2064.00" from="-3" to="5"/>
    <trip id="510" depart="2067.00" from="-11" to="3"/>
    <trip id="511" depart="2070.00" from="-5" to="5"/>
    <trip id="512" depart="2072.00" from="-5" to="3"/>
    <trip id="513" depart="2074.00" from="-15" to="11"/>
    <trip id="514" depart="2075.00" from="-15" to="5"/>
    <trip id="515" depart="2077.00" from="-11" to="15"/>
    <trip id="516" depart="2079.00" from="-3" to="3"/>