<?xml version="1.0" encoding="UTF-8"?>

<!-- generated on 2025-03-09 19:44:16.882868 by randomTrips.py v1_19_0+1770-8bb5c24c187
<configuration>
    <net-file value="random_subnetwork_4.net.xml"/>
    <output-trip-file value="random_subnetwork_4_low.trips.xml"/>
    <fringe-factor value="100"/>
    <remove-loops value="True"/>
    <validate value="True"/>
    <period value="14.3946"/>
    <binomial value="4"/>
</configuration>
-->

<!-- generated on 2025-03-09 19:44:16 by Eclipse SUMO duarouter Version v1_19_0+1770-8bb5c24c187
<configuration xmlns:xsi="http://www.w3.org/2001/XMLSchema-instance" xsi:noNamespaceSchemaLocation="http://sumo.dlr.de/xsd/duarouterConfiguration.xsd">

    <input>
        <net-file value="random_subnetwork_4.net.xml"/>
        <route-files value="random_subnetwork_4_low.trips.xml"/>
    </input>

    <output>
        <output-file value="random_subnetwork_4_low.trips.xml.tmp"/>
        <alternatives-output value="NUL"/>
        <write-trips value="true"/>
    </output>

    <processing>
        <remove-loops value="true"/>
    </processing>

    <time>
        <begin value="0.0"/>
        <end value="3600.0"/>
    </time>

    <report>
        <no-warnings value="true"/>
        <ignore-errors value="true"/>
        <no-step-log value="true"/>
    </report>

</configuration>
-->

<routes xmlns:xsi="http://www.w3.org/2001/XMLSchema-instance" xsi:noNamespaceSchemaLocation="http://sumo.dlr.de/xsd/routes_file.xsd">
    <trip id="0" depart="4.00" from="833" to="2038"/>
    <trip id="1" depart="24.00" from="-2042" to="2038"/>
    <trip id="2" depart="30.00" from="-2038" to="-833"/>
    <trip id="3" depart="65.00" from="833" to="1559"/>
    <trip id="4" depart="70.00" from="833" to="2038"/>
    <trip id="5" depart="71.00" from="-1559" to="2042"/>
    <trip id="6" depart="89.00" from="833" to="2038"/>
    <trip id="7" depart="95.00" from="-2038" to="1559"/>
    <trip id="8" depart="102.00" from="1561" to="2042"/>
    <trip id="9" depart="115.00" from="-2038" to="2042"/>
    <trip id="10" depart="144.00" from="833" to="-833"/>
    <trip id="11" depart="153.00" from="-2042" to="1559"/>
    <trip id="12" depart="165.00" from="-2038" to="2038"/>
    <trip id="13" depart="214.00" from="833" to="2042"/>
    <trip id="14" depart="232.00" from="-2042" to="1559"/>
    <trip id="15" depart="249.00" from="833" to="-833"/>
    <trip id="16" depart="250.00" from="833" to="-833"/>
    <trip id="17" depart="274.00" from="833" to="2038"/>
    <trip id="18" depart="283.00" from="-2038" to="-833"/>
    <trip id="19" depart="284.00" from="-2042" to="-833"/>
    <trip id="20" depart="337.00" from="-1559" to="1559"/>
    <trip id="21" depart="341.00" from="-2042" to="-833"/>
    <trip id="22" depart="346.00" from="833" to="1559"/>
    <trip id="23" depart="440.00" from="-2042" to="2042"/>
    <trip id="24" depart="447.00" from="-2042" to="-833"/>
    <trip id="25" depart="456.00" from="-2042" to="2038"/>
    <trip id="26" depart="477.00" from="-1559" to="1559"/>
    <trip id="27" depart="481.00" from="-1559" to="-833"/>
    <trip id="28" depart="498.00" from="833" to="2042"/>
    <trip id="29" depart="513.00" from="-2042" to="1559"/>
    <trip id="30" depart="515.00" from="-2042" to="-833"/>
    <trip id="31" depart="516.00" from="833" to="2038"/>
    <trip id="32" depart="522.00" from="-1559" to="1559"/>
    <trip id="33" depart="538.00" from="-2038" to="1559"/>
    <trip id="34" depart="565.00" from="-2038" to="2038"/>
    <trip id="35" depart="589.00" from="-1559" to="2042"/>
    <trip id="36" depart="611.00" from="833" to="2038"/>
    <trip id="37" depart="617.00" from="833" to="-833"/>
    <trip id="38" depart="621.00" from="-2038" to="-833"/>
    <trip id="39" depart="622.00" from="-2042" to="2042"/>
    <trip id="40" depart="626.00" from="-2042" to="1559"/>
    <trip id="41" depart="638.00" from="-1559" to="1559"/>
    <trip id="42" depart="662.00" from="-1559" to="2038"/>
    <trip id="43" depart="665.00" from="-2038" to="-833"/>
    <trip id="44" depart="666.00" from="-2042" to="2042"/>
    <trip id="45" depart="683.00" from="833" to="2042"/>
    <trip id="46" depart="708.00" from="833" to="-833"/>
    <trip id="47" depart="724.00" from="-2038" to="2038"/>
    <trip id="48" depart="777.00" from="833" to="2038"/>
    <trip id="49" depart="778.00" from="1561" to="2042"/>
    <trip id="50" depart="803.00" from="-2038" to="2042"/>
    <trip id="51" depart="806.00" from="-2038" to="2042"/>
    <trip id="52" depart="825.00" from="-2042" to="2042"/>
    <trip id="53" depart="852.00" from="-1559" to="2038"/>
    <trip id="54" depart="886.00" from="1561" to="2038"/>
    <trip id="55" depart="900.00" from="-2042" to="1559"/>
    <trip id="56" depart="906.00" from="-1559" to="2038"/>
    <trip id="57" depart="913.00" from="-2042" to="2038"/>
    <trip id="58" depart="921.00" from="-2042" to="2038"/>
    <trip id="59" depart="931.00" from="-1559" to="-833"/>
    <trip id="60" depart="978.00" from="-2042" to="2038"/>
    <trip id="61" depart="987.00" from="-1559" to="-833"/>
    <trip id="62" depart="994.00" from="-1559" to="2042"/>
    <trip id="63" depart="1006.00" from="833" to="-833"/>
    <trip id="64" depart="1020.00" from="-1559" to="2038"/>
    <trip id="65" depart="1055.00" from="833" to="2042"/>
    <trip id="66" depart="1055.00" from="833" to="2042"/>
    <trip id="67" depart="1056.00" from="-2038" to="1559"/>
    <trip id="68" depart="1056.00" from="-2038" to="1559"/>
    <trip id="69" depart="1078.00" from="-1559" to="2042"/>
    <trip id="70" depart="1089.00" from="-2042" to="1559"/>
    <trip id="71" depart="1125.00" from="833" to="1559"/>
    <trip id="72" depart="1140.00" from="-2042" to="-833"/>
    <trip id="73" depart="1146.00" from="-2038" to="1559"/>
    <trip id="74" depart="1172.00" from="-2038" to="1559"/>
    <trip id="75" depart="1196.00" from="833" to="-833"/>
    <trip id="76" depart="1214.00" from="-1559" to="2038"/>
    <trip id="77" depart="1216.00" from="-1559" to="1559"/>
    <trip id="78" depart="1217.00" from="-2042" to="1559"/>
    <trip id="79" depart="1236.00" from="833" to="2038"/>
    <trip id="80" depart="1240.00" from="-2042" to="2038"/>
    <trip id="81" depart="1266.00" from="-1559" to="-833"/>
    <trip id="82" depart="1270.00" from="833" to="1559"/>
    <trip id="83" depart="1277.00" from="-2042" to="1559"/>
    <trip id="84" depart="1296.00" from="-1559" to="-833"/>
    <trip id="85" depart="1306.00" from="833" to="1559"/>
    <trip id="86" depart="1313.00" from="-1559" to="-833"/>
    <trip id="87" depart="1331.00" from="833" to="2042"/>
    <trip id="88" depart="1356.00" from="-2038" to="-833"/>
    <trip id="89" depart="1361.00" from="-1559" to="-833"/>
    <trip id="90" depart="1383.00" from="833" to="-833"/>
    <trip id="91" depart="1386.00" from="-2042" to="2042"/>
    <trip id="92" depart="1423.00" from="-2042" to="2042"/>
    <trip id="93" depart="1445.00" from="-2038" to="2042"/>
    <trip id="94" depart="1458.00" from="-2042" to="1559"/>
    <trip id="95" depart="1476.00" from="-1559" to="-833"/>
    <trip id="96" depart="1584.00" from="-1559" to="1559"/>
    <trip id="97" depart="1610.00" from="833" to="2038"/>
    <trip id="98" depart="1634.00" from="-1559" to="-833"/>
    <trip id="99" depart="1638.00" from="-1559" to="-833"/>
    <trip id="100" depart="1644.00" from="-2042" to="2038"/>
    <trip id="101" depart="1678.00" from="833" to="2042"/>
    <trip id="102" depart="1683.00" from="-2038" to="2038"/>
    <trip id="103" depart="1742.00" from="-2038" to="2042"/>
    <trip id="104" depart="1742.00" from="833" to="1559"/>
    <trip id="105" depart="1750.00" from="-2042" to="2038"/>
    <trip id="106" depart="1750.00" from="-2038" to="2042"/>
    <trip id="107" depart="1756.00" from="-2038" to="2042"/>
    <trip id="108" depart="1771.00" from="-1559" to="-833"/>
    <trip id="109" depart="1784.00" from="-2038" to="2042"/>
    <trip id="110" depart="1792.00" from="-2042" to="2038"/>
    <trip id="111" depart="1799.00" from="-1559" to="-833"/>
    <trip id="112" depart="1833.00" from="-2038" to="2042"/>
    <trip id="113" depart="1841.00" from="833" to="2042"/>
    <trip id="114" depart="1856.00" from="-1559" to="-833"/>
    <trip id="115" depart="1870.00" from="-1559" to="2042"/>
    <trip id="116" depart="1879.00" from="833" to="2042"/>
    <trip id="117" depart="1905.00" from="833" to="-833"/>
    <trip id="118" depart="1918.00" from="-2042" to="2038"/>
    <trip id="119" depart="1928.00" from="833" to="2038"/>
    <trip id="120" depart="1935.00" from="-1559" to="2038"/>
    <trip id="121" depart="1943.00" from="-2042" to="2042"/>
    <trip id="122" depart="1944.00" from="-2042" to="2042"/>
    <trip id="123" depart="1953.00" from="-2038" to="-833"/>
    <trip id="124" depart="1973.00" from="-1559" to="2038"/>
    <trip id="125" depart="1992.00" from="-2042" to="2038"/>
    <trip id="126" depart="2014.00" from="-2038" to="2042"/>
    <trip id="127" depart="2029.00" from="-2038" to="2042"/>
    <trip id="128" depart="2035.00" from="-2042" to="-833"/>
    <trip id="129" depart="2059.00" from="833" to="-833"/>
    <trip id="130" depart="2088.00" from="-2042" to="2042"/>
    <trip id="131" depart="2110.00" from="-2038" to="2038"/>
    <trip id="132" depart="2128.00" from="833" to="2042"/>
    <trip id="133" depart="2143.00" from="833" to="-833"/>
    <trip id="134" depart="2152.00" from="833" to="-833"/>
    <trip id="135" depart="2165.00" from="833" to="2038"/>
    <trip id="136" depart="2177.00" from="-2038" to="1559"/>
    <trip id="137" depart="2200.00" from="833" to="1559"/>
    <trip id="138" depart="2217.00" from="833" to="2038"/>
    <trip id="139" depart="2221.00" from="-2038" to="2042"/>
    <trip id="140" depart="2225.00" from="833" to="-833"/>
    <trip id="141" depart="2238.00" from="-2038" to="-833"/>
    <trip id="142" depart="2241.00" from="-1559" to="1559"/>
    <trip id="143" depart="2261.00" from="-1559" to="2038"/>
    <trip id="144" depart="2280.00" from="-2038" to="1559"/>
    <trip id="145" depart="2295.00" from="-1559" to="1559"/>
    <trip id="146" depart="2308.00" from="-1559" to="2042"/>
    <trip id="147" depart="2330.00" from="-2038" to="1559"/>
    <trip id="148" depart="2337.00" from="-2038" to="2038"/>
    <trip id="149" depart="2351.00" from="-1559" to="1559"/>
    <trip id="150" depart="2352.00" from="-1561" to="1559"/>
    <trip id="151" depart="2368.00" from="833" to="2042"/>
    <trip id="152" depart="2375.00" from="-2038" to="2038"/>
    <trip id="153" depart="2375.00" from="-2042" to="-833"/>
    <trip id="154" depart="2385.00" from="-2038" to="2038"/>
    <trip id="155" depart="2435.00" from="-2042" to="2042"/>
    <trip id="156" depart="2459.00" from="833" to="2042"/>
    <trip id="157" depart="2496.00" from="-1559" to="1559"/>
    <trip id="158" depart="2518.00" from="833" to="-833"/>
    <trip id="159" depart="2528.00" from="-1559" to="1559"/>
    <trip id="160" depart="2531.00" from="-1559" to="2038"/>
    <trip id="161" depart="2559.00" from="833" to="2038"/>
    <trip id="162" depart="2564.00" from="-2038" to="1559"/>
    <trip id="163" depart="2573.00" from="-2042" to="2042"/>
    <trip id="164" depart="2586.00" from="-2038" to="-833"/>
    <trip id="165" depart="2609.00" from="-2038" to="2038"/>
    <trip id="166" depart="2609.00" from="-2038" to="-833"/>
    <trip id="167" depart="2619.00" from="833" to="2042"/>
    <trip id="168" depart="2625.00" from="-2038" to="1559"/>
    <trip id="169" depart="2644.00" from="-2038" to="1559"/>
    <trip id="170" depart="2655.00" from="-1559" to="2042"/>
    <trip id="171" depart="2672.00" from="-2038" to="2038"/>
    <trip id="172" depart="2703.00" from="-2038" to="1559"/>
    <trip id="173" depart="2733.00" from="-1559" to="2038"/>
    <trip id="174" depart="2755.00" from="833" to="1559"/>
    <trip id="175" depart="2773.00" from="833" to="2038"/>
    <trip id="176" depart="2810.00" from="-2038" to="-833"/>
    <trip id="177" depart="2819.00" from="833" to="-833"/>
    <trip id="178" depart="2835.00" from="833" to="1559"/>
    <trip id="179" depart="2850.00" from="833" to="-833"/>
    <trip id="180" depart="2876.00" from="-2042" to="1559"/>
    <trip id="181" depart="2883.00" from="1561" to="2038"/>
    <trip id="182" depart="2891.00" from="-1559" to="1559"/>
    <trip id="183" depart="2934.00" from="-1559" to="-833"/>
    <trip id="184" depart="2953.00" from="-2042" to="2038"/>
    <trip id="185" depart="2965.00" from="-2038" to="-833"/>
    <trip id="186" depart="2993.00" from="833" to="-833"/>
    <trip id="187" depart="2994.00" from="-1559" to="2042"/>
    <trip id="188" depart="3047.00" from="833" to="-833"/>
    <trip id="189" depart="3063.00" from="833" to="1559"/>
    <trip id="190" depart="3078.00" from="-1559" to="2042"/>
    <trip id="191" depart="3082.00" from="833" to="-833"/>
    <trip id="192" depart="3086.00" from="-1559" to="-833"/>
    <trip id="193" depart="3094.00" from="-2042" to="-833"/>
    <trip id="194" depart="3103.00" from="833" to="2038"/>
    <trip id="195" depart="3111.00" from="-2038" to="-833"/>
    <trip id="196" depart="3131.00" from="-2038" to="-833"/>
    <trip id="197" depart="3153.00" from="-2042" to="2038"/>
    <trip id="198" depart="3168.00" from="-1559" to="-833"/>
    <trip id="199" depart="3168.00" from="-2038" to="-1085"/>
    <trip id="200" depart="3179.00" from="833" to="2038"/>
    <trip id="201" depart="3203.00" from="833" to="1561"/>
    <trip id="202" depart="3219.00" from="-1559" to="2042"/>
    <trip id="203" depart="3225.00" from="833" to="2042"/>
    <trip id="204" depart="3238.00" from="-1559" to="2042"/>
    <trip id="205" depart="3239.00" from="833" to="-833"/>
    <trip id="206" depart="3271.00" from="-1559" to="2042"/>
    <trip id="207" depart="3279.00" from="-2038" to="2038"/>
    <trip id="208" depart="3313.00" from="833" to="2042"/>
    <trip id="209" depart="3318.00" from="-2038" to="2042"/>
    <trip id="210" depart="3325.00" from="-2038" to="2038"/>
    <trip id="211" depart="3327.00" from="-1559" to="1559"/>
    <trip id="212" depart="3346.00" from="-1559" to="2042"/>
    <trip id="213" depart="3367.00" from="-2042" to="1559"/>
    <trip id="214" depart="3368.00" from="-1559" to="-833"/>
    <trip id="215" depart="3391.00" from="833" to="2042"/>
    <trip id="216" depart="3396.00" from="-2038" to="2042"/>
    <trip id="217" depart="3419.00" from="-1559" to="2042"/>
    <trip id="218" depart="3433.00" from="-2038" to="2042"/>
    <trip id="219" depart="3457.00" from="-1559" to="2038"/>
    <trip id="220" depart="3458.00" from="-2042" to="1559"/>
    <trip id="221" depart="3469.00" from="-1559" to="-833"/>
    <trip id="222" depart="3488.00" from="833" to="1559"/>
    <trip id="223" depart="3489.00" from="-1559" to="-833"/>
    <trip id="224" depart="3506.00" from="-2042" to="2042"/>
    <trip id="225" depart="3535.00" from="-1559" to="2038"/>
    <trip id="226" depart="3546.00" from="-2038" to="-833"/>
    <trip id="227" depart="3553.00" from="-2042" to="2038"/>
    <trip id="228" depart="3556.00" from="-2042" to="1559"/>
    <trip id="229" depart="3587.00" from="-1559" to="2042"/>
    <trip id="230" depart="3592.00" from="-2042" to="-833"/>
</routes>
