<?xml version="1.0" encoding="UTF-8"?>

<!-- generated on 2025-03-09 19:55:40.338436 by randomTrips.py v1_19_0+1770-8bb5c24c187
<configuration>
    <net-file value="random_subnetwork_2.net.xml"/>
    <output-trip-file value="random_subnetwork_2_medium.trips.xml"/>
    <fringe-factor value="100"/>
    <min-distance value="800.0"/>
    <remove-loops value="True"/>
    <validate value="True"/>
    <period value="1.9339"/>
    <random-depart value="True"/>
    <binomial value="4"/>
</configuration>
-->

<!-- generated on 2025-03-09 19:55:40 by Eclipse SUMO duarouter Version v1_19_0+1770-8bb5c24c187
<configuration xmlns:xsi="http://www.w3.org/2001/XMLSchema-instance" xsi:noNamespaceSchemaLocation="http://sumo.dlr.de/xsd/duarouterConfiguration.xsd">

    <input>
        <net-file value="random_subnetwork_2.net.xml"/>
        <route-files value="random_subnetwork_2_medium.trips.xml"/>
    </input>

    <output>
        <output-file value="random_subnetwork_2_medium.trips.xml.tmp"/>
        <alternatives-output value="NUL"/>
        <write-trips value="true"/>
    </output>

    <processing>
        <remove-loops value="true"/>
    </processing>

    <time>
        <begin value="0.0"/>
        <end value="3600.0"/>
    </time>

    <report>
        <no-warnings value="true"/>
        <ignore-errors value="true"/>
        <no-step-log value="true"/>
    </report>

</duarouterConfiguration>
-->

<routes xmlns:xsi="http://www.w3.org/2001/XMLSchema-instance" xsi:noNamespaceSchemaLocation="http://sumo.dlr.de/xsd/routes_file.xsd">
    <trip id="0" depart="0.00" from="-27" to="1222"/>
    <trip id="5" depart="5.00" from="-27" to="1222"/>
    <trip id="6" depart="7.00" from="-1926" to="270"/>
    <trip id="7" depart="8.00" from="-678" to="275"/>
    <trip id="11" depart="26.00" from="-678" to="270"/>
    <trip id="22" depart="44.00" from="-1926" to="258"/>
    <trip id="23" depart="44.00" from="-270" to="1222"/>
    <trip id="24" depart="45.00" from="-678" to="275"/>
    <trip id="28" depart="51.00" from="-678" to="27"/>
    <trip id="31" depart="58.00" from="-275" to="270"/>
    <trip id="32" depart="61.00" from="-270" to="1926"/>
    <trip id="33" depart="62.00" from="-678" to="27"/>
    <trip id="34" depart="71.00" from="-678" to="275"/>
    <trip id="35" depart="72.00" from="-275" to="270"/>
    <trip id="36" depart="74.00" from="-1222" to="270"/>
    <trip id="37" depart="75.00" from="-275" to="270"/>
    <trip id="38" depart="76.00" from="-678" to="497"/>
    <trip id="43" depart="88.00" from="-678" to="1222"/>
    <trip id="44" depart="89.00" from="-1926" to="1222"/>
    <trip id="45" depart="89.00" from="-1222" to="301"/>
    <trip id="46" depart="91.00" from="-678" to="497"/>
    <trip id="49" depart="99.00" from="-678" to="1222"/>
    <trip id="50" depart="102.00" from="-1222" to="1926"/>
    <trip id="52" depart="103.00" from="-1222" to="678"/>
    <trip id="53" depart="104.00" from="-270" to="1926"/>
    <trip id="55" depart="120.00" from="-1222" to="27"/>
    <trip id="58" depart="122.00" from="-270" to="301"/>
    <trip id="60" depart="124.00" from="-678" to="270"/>
    <trip id="61" depart="125.00" from="-1926" to="301"/>
    <trip id="64" depart="130.00" from="-1222" to="301"/>
    <trip id="65" depart="135.00" from="-301" to="1926"/>
    <trip id="68" depart="145.00" from="-270" to="497"/>
    <trip id="70" depart="150.00" from="-275" to="678"/>
    <trip id="71" depart="151.00" from="-1222" to="1926"/>
    <trip id="72" depart="158.00" from="-270" to="678"/>
    <trip id="76" depart="169.00" from="-270" to="301"/>
    <trip id="77" depart="171.00" from="-1222" to="1926"/>
    <trip id="78" depart="173.00" from="-1222" to="270"/>
    <trip id="84" depart="186.00" from="-789" to="503"/>
    <trip id="85" depart="189.00" from="-1926" to="27"/>
    <trip id="87" depart="190.00" from="-1222" to="678"/>
    <trip id="89" depart="193.00" from="-27" to="678"/>
    <trip id="90" depart="194.00" from="-27" to="1926"/>
    <trip id="92" depart="204.00" from="-270" to="301"/>
    <trip id="95" depart="209.00" from="-301" to="1222"/>
    <trip id="96" depart="214.00" from="-1926" to="301"/>
    <trip id="98" depart="215.00" from="-678" to="27"/>
    <trip id="100" depart="223.00" from="-1926" to="301"/>
    <trip id="103" depart="226.00" from="-497" to="303"/>
    <trip id="105" depart="232.00" from="-678" to="27"/>
    <trip id="109" depart="241.00" from="-270" to="1222"/>
    <trip id="117" depart="250.00" from="-301" to="1222"/>
    <trip id="118" depart="255.00" from="-497" to="678"/>
    <trip id="119" depart="256.00" from="-1926" to="275"/>
    <trip id="120" depart="257.00" from="-678" to="497"/>
    <trip id="121" depart="260.00" from="-1926" to="301"/>
    <trip id="122" depart="261.00" from="-270" to="301"/>
    <trip id="123" depart="264.00" from="-1926" to="1222"/>
    <trip id="124" depart="265.00" from="-270" to="1926"/>
    <trip id="130" depart="278.00" from="-1926" to="497"/>
    <trip id="131" depart="280.00" from="-1222" to="518"/>
    <trip id="133" depart="284.00" from="-497" to="270"/>
    <trip id="134" depart="290.00" from="-1926" to="301"/>
    <trip id="135" depart="291.00" from="-1222" to="1926"/>
    <trip id="140" depart="298.00" from="-1926" to="301"/>
    <trip id="147" depart="315.00" from="-1926" to="275"/>
    <trip id="150" depart="321.00" from="-301" to="1926"/>
    <trip id="153" depart="325.00" from="-678" to="497"/>
    <trip id="154" depart="327.00" from="-497" to="270"/>
    <trip id="160" depart="344.00" from="-1222" to="270"/>
    <trip id="162" depart="345.00" from="-678" to="275"/>
    <trip id="163" depart="348.00" from="-678" to="27"/>
    <trip id="165" depart="350.00" from="-27" to="1926"/>
    <trip id="166" depart="353.00" from="-270" to="678"/>
    <trip id="169" depart="359.00" from="-1926" to="275"/>
    <trip id="170" depart="362.00" from="-275" to="270"/>
    <trip id="172" depart="369.00" from="-1926" to="497"/>
    <trip id="173" depart="373.00" from="-678" to="275"/>
    <trip id="174" depart="374.00" from="-270" to="301"/>
    <trip id="176" depart="377.00" from="-1222" to="678"/>
    <trip id="177" depart="377.00" from="-270" to="1926"/>
    <trip id="179" depart="380.00" from="-1222" to="27"/>
    <trip id="180" depart="383.00" from="-275" to="678"/>
    <trip id="182" depart="385.00" from="-1222" to="301"/>
    <trip id="185" depart="394.00" from="-1222" to="1926"/>
    <trip id="186" depart="399.00" from="-27" to="270"/>
    <trip id="192" depart="407.00" from="-27" to="678"/>
    <trip id="193" depart="407.00" from="-270" to="301"/>
    <trip id="197" depart="409.00" from="-270" to="1222"/>
    <trip id="198" depart="410.00" from="-275" to="303"/>
    <trip id="200" depart="411.00" from="-301" to="1222"/>
    <trip id="203" depart="421.00" from="-5" to="27"/>
    <trip id="206" depart="428.00" from="-1926" to="275"/>
    <trip id="209" depart="433.00" from="-1222" to="270"/>
    <trip id="210" depart="434.00" from="-275" to="1926"/>
    <trip id="211" depart="434.00" from="-497" to="1926"/>
    <trip id="213" depart="437.00" from="154" to="270"/>
    <trip id="214" depart="438.00" from="-270" to="27"/>
    <trip id="217" depart="441.00" from="-27" to="270"/>
    <trip id="219" depart="447.00" from="-275" to="1926"/>
    <trip id="222" depart="456.00" from="-678" to="27"/>
    <trip id="224" depart="462.00" from="303" to="1926"/>
    <trip id="226" depart="467.00" from="-497" to="678"/>
    <trip id="231" depart="478.00" from="-497" to="1926"/>
    <trip id="232" depart="479.00" from="-1222" to="301"/>
    <trip id="233" depart="479.00" from="-1926" to="301"/>
    <trip id="234" depart="480.00" from="-1926" to="275"/>
    <trip id="237" depart="483.00" from="-1926" to="497"/>
    <trip id="241" depart="487.00" from="-270" to="1926"/>
    <trip id="242" depart="487.00" from="-1926" to="301"/>
    <trip id="243" depart="493.00" from="-1222" to="27"/>
    <trip id="245" depart="495.00" from="-275" to="270"/>
    <trip id="246" depart="495.00" from="-270" to="1222"/>
    <trip id="249" depart="506.00" from="-27" to="1926"/>
    <trip id="250" depart="507.00" from="-275" to="1926"/>
    <trip id="252" depart="514.00" from="-27" to="270"/>
    <trip id="254" depart="520.00" from="-275" to="1926"/>
    <trip id="256" depart="523.00" from="-1926" to="301"/>
    <trip id="259" depart="536.00" from="-270" to="678"/>
    <trip id="264" depart="544.00" from="-301" to="1222"/>
    <trip id="266" depart="549.00" from="-270" to="275"/>
    <trip id="270" depart="564.00" from="-678" to="1222"/>
    <trip id="272" depart="566.00" from="-1926" to="497"/>
    <trip id="277" depart="572.00" from="-497" to="1926"/>
    <trip id="278" depart="576.00" from="-27" to="266"/>
    <trip id="283" depart="584.00" from="-1222" to="270"/>
    <trip id="284" depart="587.00" from="-27" to="-518"/>
    <trip id="287" depart="591.00" from="-1926" to="275"/>
    <trip id="288" depart="592.00" from="-1926" to="270"/>
    <trip id="292" depart="600.00" from="-678" to="270"/>
    <trip id="294" depart="607.00" from="295" to="1926"/>
    <trip id="296" depart="613.00" from="-678" to="1222"/>
    <trip id="299" depart="619.00" from="-27" to="678"/>
    <trip id="301" depart="620.00" from="-678" to="270"/>
    <trip id="302" depart="622.00" from="-1222" to="27"/>
    <trip id="303" depart="623.00" from="-497" to="1926"/>
    <trip id="304" depart="624.00" from="-275" to="678"/>
    <trip id="305" depart="624.00" from="-27" to="678"/>
    <trip id="307" depart="633.00" from="-27" to="270"/>
    <trip id="308" depart="634.00" from="-270" to="301"/>
    <trip id="309" depart="637.00" from="-1222" to="27"/>
    <trip id="310" depart="639.00" from="-303" to="1222"/>
    <trip id="312" depart="640.00" from="-1926" to="497"/>
    <trip id="313" depart="641.00" from="-270" to="301"/>
    <trip id="315" depart="646.00" from="-270" to="27"/>
    <trip id="316" depart="648.00" from="-27" to="1926"/>
    <trip id="319" depart="653.00" from="-27" to="270"/>
    <trip id="322" depart="662.00" from="-301" to="1222"/>
    <trip id="324" depart="664.00" from="-270" to="1926"/>
    <trip id="325" depart="664.00" from="-270" to="678"/>
    <trip id="329" depart="676.00" from="-270" to="497"/>
    <trip id="330" depart="678.00" from="-275" to="678"/>
    <trip id="331" depart="679.00" from="-270" to="1222"/>
    <trip id="333" depart="681.00" from="-678" to="275"/>
    <trip id="335" depart="687.00" from="-1926" to="27"/>
    <trip id="336" depart="687.00" from="-275" to="1926"/>
    <trip id="338" depart="698.00" from="-1222" to="27"/>
    <trip id="339" depart="705.00" from="-678" to="270"/>
    <trip id="341" depart="709.00" from="-301" to="270"/>
    <trip id="344" depart="713.00" from="-27" to="678"/>
    <trip id="346" depart="719.00" from="-270" to="678"/>
    <trip id="348" depart="730.00" from="-275" to="270"/>
    <trip id="350" depart="734.00" from="-270" to="301"/>
    <trip id="351" depart="736.00" from="-1926" to="27"/>
    <trip id="352" depart="739.00" from="-270" to="1926"/>
    <trip id="353" depart="740.00" from="-678" to="1222"/>
    <trip id="354" depart="741.00" from="-270" to="301"/>
    <trip id="357" depart="747.00" from="-1926" to="497"/>
    <trip id="358" depart="748.00" from="-27" to="270"/>
    <trip id="359" depart="753.00" from="-1926" to="154"/>
    <trip id="361" depart="754.00" from="-1926" to="270"/>
    <trip id="364" depart="760.00" from="-497" to="1926"/>
    <trip id="368" depart="767.00" from="-678" to="27"/>
    <trip id="370" depart="771.00" from="-1222" to="270"/>
    <trip id="371" depart="771.00" from="-262" to="678"/>
    <trip id="372" depart="772.00" from="-27" to="678"/>
    <trip id="373" depart="772.00" from="-27" to="15"/>
    <trip id="376" depart="783.00" from="-1926" to="27"/>
    <trip id="378" depart="787.00" from="-678" to="270"/>
    <trip id="382" depart="795.00" from="-270" to="1222"/>
    <trip id="384" depart="799.00" from="-497" to="678"/>
    <trip id="385" depart="803.00" from="-1222" to="678"/>
    <trip id="386" depart="803.00" from="-1926" to="270"/>
    <trip id="388" depart="804.00" from="-1222" to="27"/>
    <trip id="389" depart="809.00" from="-275" to="270"/>
    <trip id="391" depart="810.00" from="-678" to="497"/>
    <trip id="392" depart="814.00" from="-1926" to="301"/>
    <trip id="396" depart="826.00" from="-1926" to="1222"/>
    <trip id="397" depart="828.00" from="-275" to="1926"/>
    <trip id="400" depart="834.00" from="-275" to="1926"/>
    <trip id="403" depart="841.00" from="-270" to="301"/>
    <trip id="404" depart="843.00" from="-497" to="1926"/>
    <trip id="405" depart="845.00" from="-1926" to="-11"/>
    <trip id="406" depart="848.00" from="-275" to="270"/>
    <trip id="410" depart="861.00" from="-27" to="1222"/>
    <trip id="412" depart="863.00" from="-1222" to="27"/>
    <trip id="413" depart="864.00" from="-1222" to="301"/>
    <trip id="418" depart="875.00" from="-301" to="1926"/>
    <trip id="422" depart="882.00" from="-275" to="270"/>
    <trip id="424" depart="884.00" from="-270" to="1222"/>
    <trip id="425" depart="888.00" from="-1926" to="1222"/>
    <trip id="426" depart="888.00" from="-270" to="275"/>
    <trip id="431" depart="900.00" from="-1222" to="270"/>
    <trip id="433" depart="909.00" from="-1222" to="678"/>
    <trip id="435" depart="912.00" from="-27" to="1222"/>
    <trip id="437" depart="916.00" from="-678" to="27"/>
    <trip id="438" depart="918.00" from="-678" to="27"/>
    <trip id="439" depart="921.00" from="-1222" to="678"/>
    <trip id="440" depart="929.00" from="-270" to="27"/>
    <trip id="441" depart="930.00" from="-270" to="27"/>
    <trip id="444" depart="931.00" from="-1926" to="301"/>
    <trip id="446" depart="934.00" from="-27" to="1926"/>
    <trip id="447" depart="939.00" from="-301" to="1222"/>
    <trip id="448" depart="940.00" from="-1926" to="275"/>
    <trip id="449" depart="941.00" from="-497" to="270"/>
    <trip id="450" depart="941.00" from="-270" to="1926"/>
    <trip id="452" depart="944.00" from="-275" to="678"/>
    <trip id="453" depart="945.00" from="-1926" to="497"/>
    <trip id="454" depart="951.00" from="-1926" to="275"/>
    <trip id="455" depart="951.00" from="-27" to="270"/>
    <trip id="457" depart="956.00" from="-27" to="270"/>
    <trip id="458" depart="956.00" from="-678" to="1222"/>
    <trip id="459" depart="959.00" from="-1926" to="515"/>
    <trip id="462" depart="962.00" from="-27" to="1926"/>
    <trip id="465" depart="964.00" from="-1926" to="1222"/>
    <trip id="470" depart="984.00" from="-301" to="270"/>
    <trip id="471" depart="988.00" from="-678" to="270"/>
    <trip id="472" depart="995.00" from="-515" to="1926"/>
    <trip id="476" depart="1001.00" from="-275" to="678"/>
    <trip id="479" depart="1004.00" from="-497" to="1926"/>
    <trip id="480" depart="1006.00" from="-678" to="27"/>
    <trip id="485" depart="1020.00" from="-1222" to="301"/>
    <trip id="488" depart="1030.00" from="-1926" to="270"/>
    <trip id="490" depart="1040.00" from="-275" to="678"/>
    <trip id="492" depart="1046.00" from="-270" to="27"/>
    <trip id="493" depart="1054.00" from="-678" to="1222"/>
    <trip id="495" depart="1059.00" from="-1222" to="27"/>
    <trip id="496" depart="1064.00" from="-1926" to="270"/>
    <trip id="498" depart="1065.00" from="-27" to="480"/>
    <trip id="499" depart="1067.00" from="-497" to="678"/>
    <trip id="501" depart="1068.00" from="-1926" to="1222"/>
    <trip id="507" depart="1094.00" from="-1926" to="497"/>
    <trip id="509" depart="1095.00" from="-270" to="497"/>
    <trip id="511" depart="1098.00" from="-1222" to="301"/>
    <trip id="512" depart="1100.00" from="-678" to="1222"/>
    <trip id="513" depart="1100.00" from="-1222" to="1926"/>
    <trip id="514" depart="1101.00" from="-1926" to="1222"/>
    <trip id="516" depart="1106.00" from="-275" to="678"/>
    <trip id="517" depart="1107.00" from="289" to="270"/>
    <trip id="518" depart="1107.00" from="-678" to="275"/>
    <trip id="519" depart="1108.00" from="-270" to="1926"/>
    <trip id="523" depart="1120.00" from="-27" to="270"/>
    <trip id="524" depart="1124.00" from="-1926" to="497"/>
    <trip id="525" depart="1124.00" from="-678" to="27"/>
    <trip id="526" depart="1125.00" from="-301" to="1222"/>
    <trip id="527" depart="1125.00" from="-497" to="270"/>
    <trip id="533" depart="1133.00" from="-270" to="27"/>
    <trip id="535" depart="1135.00" from="-678" to="275"/>
    <trip id="536" depart="1142.00" from="-678" to="27"/>
    <trip id="539" depart="1146.00" from="-1222" to="27"/>
    <trip id="545" depart="1154.00" from="-1222" to="301"/>
    <trip id="547" depart="1157.00" from="-497" to="678"/>
    <trip id="548" depart="1158.00" from="-497" to="1926"/>
    <trip id="550" depart="1167.00" from="-270" to="678"/>
    <trip id="551" depart="1169.00" from="-27" to="270"/>
    <trip id="553" depart="1178.00" from="-1222" to="678"/>
    <trip id="557" depart="1186.00" from="-1926" to="497"/>
    <trip id="561" depart="1189.00" from="-270" to="301"/>
    <trip id="563" depart="1190.00" from="-678" to="3"/>
    <trip id="564" depart="1191.00" from="-27" to="678"/>
    <trip id="570" depart="1200.00" from="-270" to="678"/>
    <trip id="571" depart="1202.00" from="-270" to="27"/>
    <trip id="572" depart="1205.00" from="-1926" to="515"/>
    <trip id="574" depart="1207.00" from="-270" to="27"/>
    <trip id="575" depart="1208.00" from="-678" to="27"/>
    <trip id="579" depart="1213.00" from="-497" to="1926"/>
    <trip id="580" depart="1214.00" from="-1926" to="301"/>
    <trip id="582" depart="1221.00" from="-27" to="678"/>
    <trip id="585" depart="1228.00" from="-1926" to="27"/>
    <trip id="588" depart="1232.00" from="-678" to="275"/>
    <trip id="589" depart="1233.00" from="-1926" to="1222"/>
    <trip id="592" depart="1247.00" from="-497" to="678"/>
    <trip id="593" depart="1249.00" from="-1926" to="497"/>
    <trip id="594" depart="1249.00" from="-678" to="275"/>
    <trip id="595" depart="1250.00" from="-1926" to="497"/>
    <trip id="597" depart="1257.00" from="-1926" to="301"/>
    <trip id="601" depart="1263.00" from="-497" to="270"/>
    <trip id="602" depart="1264.00" from="-43" to="270"/>
    <trip id="604" depart="1265.00" from="-480" to="1222"/>
    <trip id="605" depart="1269.00" from="-270" to="1222"/>
    <trip id="606" depart="1270.00" from="-270" to="1222"/>
    <trip id="607" depart="1272.00" from="-270" to="1222"/>
    <trip id="609" depart="1275.00" from="-1926" to="301"/>
    <trip id="610" depart="1277.00" from="-301" to="1222"/>
    <trip id="615" depart="1293.00" from="-1222" to="1926"/>
    <trip id="616" depart="1294.00" from="-270" to="301"/>
    <trip id="617" depart="1298.00" from="-270" to="678"/>
    <trip id="618" depart="1299.00" from="-1222" to="270"/>
    <trip id="624" depart="1311.00" from="-678" to="270"/>
    <trip id="626" depart="1313.00" from="-27" to="678"/>
    <trip id="628" depart="1315.00" from="-1926" to="497"/>
    <trip id="630" depart="1318.00" from="-301" to="1222"/>
    <trip id="635" depart="1327.00" from="-301" to="1222"/>
    <trip id="636" depart="1327.00" from="-27" to="1926"/>
    <trip id="641" depart="1338.00" from="-270" to="27"/>
    <trip id="643" depart="1340.00" from="-518" to="262"/>
    <trip id="644" depart="1340.00" from="-1926" to="27"/>
    <trip id="645" depart="1355.00" from="-1926" to="270"/>
    <trip id="647" depart="1356.00" from="-270" to="27"/>
    <trip id="650" depart="1361.00" from="-497" to="678"/>
    <trip id="651" depart="1363.00" from="-1926" to="1222"/>
    <trip id="653" depart="1364.00" from="289" to="678"/>
    <trip id="655" depart="1369.00" from="-1222" to="518"/>
    <trip id="656" depart="1371.00" from="-497" to="266"/>
    <trip id="660" depart="1374.00" from="-270" to="1926"/>
    <trip id="661" depart="1374.00" from="-1926" to="1222"/>
    <trip id="662" depart="1374.00" from="-497" to="270"/>
    <trip id="665" depart="1378.00" from="-497" to="270"/>
    <trip id="666" depart="1378.00" from="-497" to="518"/>
    <trip id="668" depart="1379.00" from="-678" to="270"/>
    <trip id="669" depart="1383.00" from="-1926" to="301"/>
    <trip id="670" depart="1384.00" from="-1926" to="497"/>
    <trip id="671" depart="1386.00" from="-1222" to="1926"/>
    <trip id="673" depart="1389.00" from="-275" to="1926"/>
    <trip id="676" depart="1394.00" from="-1926" to="497"/>
    <trip id="680" depart="1404.00" from="-678" to="1222"/>
    <trip id="681" depart="1404.00" from="-270" to="1926"/>
    <trip id="682" depart="1405.00" from="-1926" to="497"/>
    <trip id="683" depart="1410.00" from="-270" to="275"/>
    <trip id="685" depart="1413.00" from="-497" to="1926"/>
    <trip id="688" depart="1418.00" from="-27" to="270"/>
    <trip id="690" depart="1419.00" from="-270" to="27"/>
    <trip id="691" depart="1421.00" from="-678" to="275"/>
    <trip id="692" depart="1424.00" from="-270" to="1222"/>
    <trip id="696" depart="1427.00" from="-1222" to="1926"/>
    <trip id="701" depart="1431.00" from="-497" to="678"/>
    <trip id="702" depart="1432.00" from="-270" to="27"/>
    <trip id="705" depart="1436.00" from="-1222" to="678"/>
    <trip id="707" depart="1443.00" from="-15" to="27"/>
    <trip id="709" depart="1450.00" from="-27" to="270"/>
    <trip id="712" depart="1454.00" from="-27" to="1926"/>
    <trip id="713" depart="1456.00" from="-27" to="1926"/>
    <trip id="714" depart="1457.00" from="-515" to="1926"/>
    <trip id="715" depart="1457.00" from="-270" to="1926"/>
    <trip id="716" depart="1459.00" from="-27" to="678"/>
    <trip id="718" depart="1461.00" from="-270" to="678"/>
    <trip id="719" depart="1461.00" from="-497" to="270"/>
    <trip id="720" depart="1461.00" from="-27" to="678"/>
    <trip id="723" depart="1468.00" from="-270" to="275"/>
    <trip id="724" depart="1468.00" from="-678" to="27"/>
    <trip id="725" depart="1471.00" from="-678" to="497"/>
    <trip id="727" depart="1476.00" from="-1222" to="678"/>
    <trip id="728" depart="1480.00" from="-1926" to="270"/>
    <trip id="729" depart="1480.00" from="-1222" to="678"/>
    <trip id="732" depart="1483.00" from="-1926" to="270"/>
    <trip id="734" depart="1502.00" from="-295" to="275"/>
    <trip id="735" depart="1505.00" from="-1926" to="275"/>
    <trip id="736" depart="1505.00" from="-275" to="270"/>
    <trip id="737" depart="1506.00" from="-678" to="275"/>
    <trip id="738" depart="1507.00" from="-1222" to="1926"/>
    <trip id="739" depart="1511.00" from="-270" to="27"/>
    <trip id="742" depart="1521.00" from="-27" to="270"/>
    <trip id="743" depart="1522.00" from="-678" to="270"/>
    <trip id="744" depart="1523.00" from="-1926" to="1222"/>
    <trip id="745" depart="1523.00" from="-1926" to="3"/>
    <trip id="748" depart="1529.00" from="-270" to="1926"/>
    <trip id="749" depart="1531.00" from="-270" to="1926"/>
    <trip id="750" depart="1531.00" from="-301" to="270"/>
    <trip id="753" depart="1539.00" from="-270" to="27"/>
    <trip id="755" depart="1544.00" from="-270" to="497"/>
    <trip id="757" depart="1549.00" from="-275" to="270"/>
    <trip id="758" depart="1551.00" from="-27" to="678"/>
    <trip id="761" depart="1554.00" from="-270" to="27"/>
    <trip id="762" depart="1557.00" from="-275" to="678"/>
    <trip id="763" depart="1557.00" from="-497" to="678"/>
    <trip id="765" depart="1560.00" from="-1926" to="-15"/>
    <trip id="766" depart="1561.00" from="-301" to="1222"/>
    <trip id="767" depart="1561.00" from="-275" to="270"/>
    <trip id="768" depart="1562.00" from="-1926" to="497"/>
    <trip id="769" depart="1567.00" from="-270" to="1926"/>
    <trip id="770" depart="1568.00" from="-1926" to="497"/>
    <trip id="772" depart="1570.00" from="-678" to="154"/>
    <trip id="774" depart="1576.00" from="-1222" to="678"/>
    <trip id="775" depart="1577.00" from="-497" to="1926"/>
    <trip id="778" depart="1588.00" from="-270" to="1926"/>
    <trip id="779" depart="1589.00" from="-258" to="27"/>
    <trip id="781" depart="1595.00" from="-301" to="1222"/>
    <trip id="784" depart="1598.00" from="-1926" to="27"/>
    <trip id="785" depart="1599.00" from="-1926" to="301"/>
    <trip id="787" depart="1600.00" from="-1926" to="301"/>
    <trip id="788" depart="1602.00" from="-270" to="27"/>
    <trip id="791" depart="1611.00" from="-1222" to="301"/>
    <trip id="794" depart="1620.00" from="-27" to="270"/>
    <trip id="795" depart="1623.00" from="-678" to="275"/>
    <trip id="798" depart="1627.00" from="-1222" to="27"/>
    <trip id="799" depart="1628.00" from="-678" to="27"/>
    <trip id="800" depart="1631.00" from="-1926" to="27"/>
    <trip id="802" depart="1633.00" from="-1926" to="789"/>
    <trip id="805" depart="1636.00" from="-1926" to="27"/>
    <trip id="807" depart="1638.00" from="-27" to="1222"/>
    <trip id="810" depart="1646.00" from="-270" to="275"/>
    <trip id="812" depart="1648.00" from="-275" to="270"/>
    <trip id="813" depart="1648.00" from="-1926" to="1222"/>
    <trip id="814" depart="1648.00" from="-275" to="270"/>
    <trip id="817" depart="1650.00" from="-1222" to="678"/>
    <trip id="818" depart="1651.00" from="-27" to="1222"/>
    <trip id="820" depart="1654.00" from="-1926" to="270"/>
    <trip id="823" depart="1657.00" from="-270" to="301"/>
    <trip id="824" depart="1659.00" from="-1926" to="1222"/>
    <trip id="825" depart="1659.00" from="-678" to="27"/>
    <trip id="826" depart="1660.00" from="-270" to="1222"/>
    <trip id="827" depart="1660.00" from="-275" to="270"/>
    <trip id="830" depart="1666.00" from="-270" to="1926"/>
    <trip id="831" depart="1666.00" from="-27" to="678"/>
    <trip id="834" depart="1672.00" from="-1222" to="270"/>
    <trip id="835" depart="1672.00" from="-1926" to="301"/>
    <trip id="836" depart="1675.00" from="-301" to="1926"/>
    <trip id="837" depart="1675.00" from="-480" to="1222"/>
    <trip id="838" depart="1679.00" from="-275" to="1926"/>
    <trip id="844" depart="1690.00" from="-1926" to="1222"/>
    <trip id="845" depart="1690.00" from="-1926" to="27"/>
    <trip id="847" depart="1693.00" from="-678" to="27"/>
    <trip id="848" depart="1693.00" from="-1926" to="497"/>
    <trip id="849" depart="1694.00" from="43" to="270"/>
    <trip id="850" depart="1695.00" from="-678" to="275"/>
    <trip id="851" depart="1696.00" from="-270" to="678"/>
    <trip id="854" depart="1706.00" from="-275" to="1926"/>
    <trip id="855" depart="1707.00" from="-301" to="1926"/>
    <trip id="856" depart="1708.00" from="-270" to="1222"/>
    <trip id="859" depart="1711.00" from="-678" to="27"/>
    <trip id="866" depart="1723.00" from="-678" to="27"/>
    <trip id="867" depart="1724.00" from="-678" to="497"/>
    <trip id="871" depart="1725.00" from="-1222" to="301"/>
    <trip id="872" depart="1728.00" from="-301" to="1926"/>
    <trip id="876" depart="1748.00" from="-1222" to="678"/>
    <trip id="878" depart="1750.00" from="-301" to="1222"/>
    <trip id="883" depart="1757.00" from="-275" to="678"/>
    <trip id="884" depart="1758.00" from="-678" to="270"/>
    <trip id="885" depart="1761.00" from="-275" to="1926"/>
    <trip id="886" depart="1762.00" from="-270" to="27"/>
    <trip id="887" depart="1763.00" from="-270" to="275"/>
    <trip id="888" depart="1765.00" from="-270" to="1926"/>
    <trip id="889" depart="1766.00" from="-497" to="1926"/>
    <trip id="890" depart="1767.00" from="-270" to="-43"/>
    <trip id="892" depart="1770.00" from="-27" to="678"/>
    <trip id="894" depart="1771.00" from="-270" to="21"/>
    <trip id="896" depart="1773.00" from="-497" to="678"/>
    <trip id="899" depart="1776.00" from="-1926" to="27"/>
    <trip id="900" depart="1778.00" from="-1222" to="270"/>
    <trip id="901" depart="1780.00" from="-1926" to="301"/>
    <trip id="902" depart="1781.00" from="-154" to="678"/>
    <trip id="904" depart="1783.00" from="-270" to="27"/>
    <trip id="905" depart="1785.00" from="-1926" to="270"/>
    <trip id="911" depart="1796.00" from="258" to="1926"/>
    <trip id="913" depart="1799.00" from="295" to="1926"/>
    <trip id="914" depart="1800.00" from="-27" to="678"/>
    <trip id="919" depart="1805.00" from="-1926" to="1222"/>
    <trip id="920" depart="1805.00" from="-678" to="270"/>
    <trip id="922" depart="1806.00" from="-270" to="27"/>
    <trip id="923" depart="1808.00" from="-678" to="270"/>
    <trip id="926" depart="1812.00" from="-497" to="1926"/>
    <trip id="928" depart="1816.00" from="-1222" to="301"/>
    <trip id="931" depart="1821.00" from="-301" to="1926"/>
    <trip id="934" depart="1824.00" from="-270" to="1222"/>
    <trip id="935" depart="1824.00" from="-270" to="275"/>
    <trip id="936" depart="1829.00" from="-678" to="27"/>
    <trip id="937" depart="1829.00" from="-497" to="270"/>
    <trip id="940" depart="1834.00" from="-497" to="1926"/>
    <trip id="942" depart="1837.00" from="-270" to="678"/>
    <trip id="945" depart="1846.00" from="-497" to="-266"/>
    <trip id="946" depart="1849.00" from="-497" to="678"/>
    <trip id="947" depart="1850.00" from="-497" to="270"/>
    <trip id="949" depart="1854.00" from="-1222" to="27"/>
    <trip id="950" depart="1856.00" from="-678" to="497"/>
    <trip id="951" depart="1857.00" from="-21" to="678"/>
    <trip id="952" depart="1857.00" from="-1222" to="270"/>
    <trip id="953" depart="1858.00" from="-678" to="270"/>
    <trip id="958" depart="1868.00" from="-1926" to="275"/>
    <trip id="960" depart="1871.00" from="-275" to="1926"/>
    <trip id="963" depart="1881.00" from="-270" to="27"/>
    <trip id="964" depart="1881.00" from="-1926" to="1222"/>
    <trip id="965" depart="1882.00" from="-270" to="678"/>
    <trip id="970" depart="1893.00" from="-497" to="678"/>
    <trip id="973" depart="1896.00" from="-1926" to="1222"/>