<?xml version="1.0" encoding="UTF-8"?>

<!-- generated on 2025-03-10 19:14:51.193224 by randomTrips.py v1_19_0+1770-8bb5c24c187
<configuration>
    <net-file value="random_subnetwork_1.net.xml"/>
    <output-trip-file value="random_subnetwork_1_medium.trips.xml"/>
    <length value="True"/>
    <fringe-factor value="100"/>
    <min-distance value="800.0"/>
    <remove-loops value="True"/>
    <validate value="True"/>
    <period value="2.0662342880101017"/>
    <random-depart value="True"/>
    <binomial value="10"/>
</configuration>
-->

<!-- generated on 2025-03-10 19:14:51 by Eclipse SUMO duarouter Version v1_19_0+1770-8bb5c24c187
<configuration xmlns:xsi="http://www.w3.org/2001/XMLSchema-instance" xsi:noNamespaceSchemaLocation="http://sumo.dlr.de/xsd/duarouterConfiguration.xsd">

    <input>
        <net-file value="random_subnetwork_1.net.xml"/>
        <route-files value="random_subnetwork_1_medium.trips.xml"/>
    </input>

    <output>
        <output-file value="random_subnetwork_1_medium.trips.xml.tmp"/>
        <alternatives-output value="NUL"/>
        <write-trips value="true"/>
    </output>

    <processing>
        <remove-loops value="true"/>
    </processing>

    <time>
        <begin value="0.0"/>
        <end value="3600.0"/>
    </time>

    <report>
        <no-warnings value="true"/>
        <ignore-errors value="true"/>
        <no-step-log value="true"/>
    </report>

</duarouterConfiguration>
-->

<routes xmlns:xsi="http://www.w3.org/2001/XMLSchema-instance" xsi:noNamespaceSchemaLocation="http://sumo.dlr.de/xsd/routes_file.xsd">
    <trip id="0" depart="0.00" from="-1912" to="1072"/>
    <trip id="1" depart="1.00" from="-315" to="1072"/>
    <trip id="2" depart="1.00" from="-1912" to="1072"/>
    <trip id="3" depart="9.00" from="-462" to="315"/>
    <trip id="4" depart="11.00" from="-1912" to="-270"/>
    <trip id="5" depart="25.00" from="-1912" to="1916"/>
    <trip id="6" depart="26.00" from="-315" to="462"/>
    <trip id="7" depart="28.00" from="270" to="462"/>
    <trip id="8" depart="30.00" from="-1916" to="508"/>
    <trip id="9" depart="32.00" from="270" to="1916"/>
    <trip id="10" depart="34.00" from="-1916" to="1912"/>
    <trip id="11" depart="35.00" from="-1916" to="-307"/>
    <trip id="12" depart="36.00" from="-1072" to="1912"/>
    <trip id="13" depart="41.00" from="-1912" to="462"/>
    <trip id="14" depart="43.00" from="-1072" to="315"/>
    <trip id="15" depart="44.00" from="-462" to="1916"/>
    <trip id="16" depart="45.00" from="270" to="1912"/>
    <trip id="17" depart="50.00" from="-462" to="1912"/>
    <trip id="18" depart="54.00" from="270" to="1916"/>
    <trip id="19" depart="58.00" from="-1912" to="1072"/>
    <trip id="20" depart="78.00" from="-1916" to="1907"/>
    <trip id="21" depart="84.00" from="-462" to="315"/>
    <trip id="22" depart="85.00" from="270" to="1916"/>
    <trip id="23" depart="89.00" from="-508" to="1072"/>
    <trip id="24" depart="91.00" from="-508" to="1072"/>
    <trip id="25" depart="91.00" from="-508" to="1916"/>
    <trip id="26" depart="99.00" from="270" to="462"/>
    <trip id="27" depart="100.00" from="-462" to="-270"/>
    <trip id="28" depart="103.00" from="-1912" to="1072"/>
    <trip id="29" depart="103.00" from="-508" to="1072"/>
    <trip id="30" depart="104.00" from="270" to="462"/>
    <trip id="31" depart="104.00" from="-1912" to="462"/>
    <trip id="32" depart="122.00" from="-1072" to="1912"/>
    <trip id="33" depart="123.00" from="270" to="462"/>
    <trip id="34" depart="124.00" from="-508" to="1916"/>
    <trip id="35" depart="125.00" from="-315" to="1072"/>
    <trip id="36" depart="127.00" from="-462" to="305"/>
    <trip id="37" depart="139.00" from="-508" to="1916"/>
    <trip id="38" depart="144.00" from="-1072" to="315"/>
    <trip id="39" depart="149.00" from="270" to="1916"/>
    <trip id="40" depart="155.00" from="-1916" to="508"/>
    <trip id="41" depart="156.00" from="-1912" to="1072"/>
    <trip id="42" depart="163.00" from="-1916" to="508"/>
    <trip id="43" depart="166.00" from="270" to="1916"/>
    <trip id="44" depart="169.00" from="-462" to="315"/>
    <trip id="45" depart="177.00" from="-1072" to="1907"/>
    <trip id="46" depart="179.00" from="-462" to="-270"/>
    <trip id="47" depart="185.00" from="-315" to="1072"/>
    <trip id="48" depart="191.00" from="-1916" to="-270"/>
    <trip id="49" depart="191.00" from="-1907" to="1072"/>
    <trip id="50" depart="193.00" from="-1916" to="462"/>
    <trip id="51" depart="199.00" from="-1072" to="1907"/>
    <trip id="52" depart="209.00" from="-1912" to="1916"/>
    <trip id="53" depart="210.00" from="-1072" to="1912"/>
    <trip id="54" depart="218.00" from="270" to="1916"/>
    <trip id="55" depart="227.00" from="-462" to="1912"/>
    <trip id="56" depart="229.00" from="-1916" to="508"/>
    <trip id="57" depart="230.00" from="-1916" to="-470"/>
    <trip id="58" depart="230.00" from="270" to="1912"/>
    <trip id="59" depart="232.00" from="-462" to="1912"/>
    <trip id="60" depart="237.00" from="-1072" to="1907"/>
    <trip id="61" depart="246.00" from="-1907" to="1916"/>
    <trip id="62" depart="247.00" from="-1912" to="462"/>
    <trip id="63" depart="248.00" from="-462" to="-270"/>
    <trip id="64" depart="254.00" from="-1916" to="-307"/>
    <trip id="65" depart="255.00" from="-1072" to="508"/>
    <trip id="66" depart="262.00" from="-315" to="1916"/>
    <trip id="67" depart="263.00" from="270" to="462"/>
    <trip id="68" depart="263.00" from="-1916" to="508"/>
    <trip id="69" depart="268.00" from="-1916" to="315"/>
    <trip id="70" depart="273.00" from="-1916" to="315"/>
    <trip id="71" depart="282.00" from="-462" to="-270"/>
    <trip id="72" depart="288.00" from="-1072" to="508"/>
    <trip id="73" depart="288.00" from="-1912" to="462"/>
    <trip id="74" depart="298.00" from="-1912" to="462"/>
    <trip id="75" depart="300.00" from="-1912" to="462"/>
    <trip id="76" depart="304.00" from="-462" to="1912"/>
    <trip id="77" depart="307.00" from="-1072" to="1907"/>
    <trip id="78" depart="316.00" from="-315" to="1072"/>
    <trip id="79" depart="326.00" from="-1912" to="462"/>
    <trip id="80" depart="329.00" from="-1912" to="1916"/>
    <trip id="81" depart="334.00" from="-462" to="1912"/>
    <trip id="82" depart="337.00" from="-1072" to="315"/>
    <trip id="83" depart="339.00" from="-462" to="1916"/>
    <trip id="84" depart="342.00" from="-315" to="1916"/>
    <trip id="85" depart="347.00" from="-1907" to="1072"/>
    <trip id="86" depart="349.00" from="-315" to="1916"/>
    <trip id="87" depart="356.00" from="-315" to="1916"/>
    <trip id="88" depart="357.00" from="-462" to="315"/>
    <trip id="89" depart="363.00" from="-462" to="315"/>
    <trip id="90" depart="367.00" from="270" to="1912"/>
    <trip id="91" depart="369.00" from="-1912" to="462"/>
    <trip id="92" depart="372.00" from="-508" to="1072"/>
    <trip id="93" depart="378.00" from="-1907" to="1916"/>
    <trip id="94" depart="383.00" from="-1916" to="315"/>
    <trip id="95" depart="385.00" from="-462" to="315"/>
    <trip id="96" depart="386.00" from="-1916" to="462"/>
    <trip id="97" depart="390.00" from="-1072" to="508"/>
    <trip id="98" depart="390.00" from="-1916" to="1907"/>
    <trip id="99" depart="390.00" from="-1916" to="1912"/>
    <trip id="100" depart="393.00" from="-1916" to="462"/>
    <trip id="101" depart="397.00" from="-1916" to="-270"/>
    <trip id="102" depart="401.00" from="-462" to="1916"/>
    <trip id="103" depart="411.00" from="-1912" to="1916"/>
    <trip id="104" depart="415.00" from="-1912" to="-270"/>
    <trip id="105" depart="419.00" from="-1072" to="315"/>
    <trip id="106" depart="419.00" from="-1907" to="1916"/>
    <trip id="107" depart="420.00" from="-1912" to="462"/>
    <trip id="108" depart="420.00" from="-1916" to="1907"/>
    <trip id="109" depart="421.00" from="-1912" to="462"/>
    <trip id="110" depart="421.00" from="-1907" to="1916"/>
    <trip id="111" depart="430.00" from="-1439" to="1912"/>
    <trip id="112" depart="439.00" from="-1916" to="-270"/>
    <trip id="113" depart="445.00" from="-1916" to="1907"/>
    <trip id="114" depart="446.00" from="-1072" to="315"/>
    <trip id="115" depart="451.00" from="-1916" to="1912"/>
    <trip id="116" depart="453.00" from="-1916" to="-270"/>
    <trip id="117" depart="454.00" from="-462" to="1916"/>
    <trip id="118" depart="465.00" from="-1907" to="1072"/>
    <trip id="119" depart="466.00" from="270" to="1912"/>
    <trip id="120" depart="469.00" from="-462" to="1912"/>
    <trip id="121" depart="477.00" from="-315" to="1072"/>
    <trip id="122" depart="480.00" from="270" to="1912"/>
    <trip id="123" depart="483.00" from="-1912" to="1072"/>
    <trip id="124" depart="483.00" from="-1072" to="508"/>
    <trip id="125" depart="490.00" from="270" to="462"/>
    <trip id="126" depart="500.00" from="-1916" to="-270"/>
    <trip id="127" depart="502.00" from="-1912" to="462"/>
    <trip id="128" depart="510.00" from="-1916" to="462"/>
    <trip id="129" depart="511.00" from="-462" to="-270"/>
    <trip id="130" depart="512.00" from="-1916" to="462"/>
    <trip id="131" depart="525.00" from="-1916" to="1907"/>
    <trip id="132" depart="528.00" from="-462" to="-270"/>
    <trip id="133" depart="533.00" from="-1072" to="1907"/>
    <trip id="134" depart="538.00" from="-1916" to="1907"/>
    <trip id="135" depart="545.00" from="-1907" to="1072"/>
    <trip id="136" depart="559.00" from="-1072" to="508"/>
    <trip id="137" depart="560.00" from="-508" to="1916"/>
    <trip id="138" depart="565.00" from="-315" to="1072"/>
    <trip id="139" depart="570.00" from="-315" to="462"/>
    <trip id="140" depart="574.00" from="270" to="1916"/>
    <trip id="141" depart="579.00" from="-1072" to="315"/>
    <trip id="142" depart="586.00" from="-462" to="315"/>
    <trip id="143" depart="595.00" from="-462" to="315"/>
    <trip id="144" depart="596.00" from="-462" to="315"/>
    <trip id="145" depart="606.00" from="-1916" to="315"/>
    <trip id="146" depart="607.00" from="270" to="462"/>
    <trip id="147" depart="608.00" from="-1907" to="1072"/>
    <trip id="148" depart="609.00" from="-462" to="315"/>
    <trip id="149" depart="612.00" from="-1912" to="1072"/>
    <trip id="150" depart="615.00" from="-1072" to="1912"/>
    <trip id="151" depart="622.00" from="-1072" to="1907"/>
    <trip id="152" depart="624.00" from="-1912" to="1916"/>
    <trip id="153" depart="626.00" from="-508" to="1916"/>
    <trip id="154" depart="640.00" from="-508" to="1072"/>
    <trip id="155" depart="641.00" from="-1916" to="1912"/>
    <trip id="156" depart="642.00" from="-1072" to="1912"/>
    <trip id="157" depart="646.00" from="-1916" to="462"/>
    <trip id="158" depart="646.00" from="270" to="1912"/>
    <trip id="159" depart="650.00" from="-462" to="315"/>
    <trip id="160" depart="650.00" from="-1916" to="508"/>
    <trip id="161" depart="652.00" from="-1916" to="508"/>
    <trip id="162" depart="652.00" from="-1912" to="-270"/>
    <trip id="163" depart="658.00" from="-1916" to="-270"/>
    <trip id="164" depart="662.00" from="-1916" to="462"/>
    <trip id="165" depart="665.00" from="-462" to="315"/>
    <trip id="166" depart="667.00" from="-1907" to="1072"/>
    <trip id="167" depart="669.00" from="-1072" to="315"/>
    <trip id="168" depart="680.00" from="-1912" to="462"/>
    <trip id="169" depart="683.00" from="-462" to="1912"/>
    <trip id="170" depart="684.00" from="-315" to="1916"/>
    <trip id="171" depart="688.00" from="-1916" to="462"/>
    <trip id="172" depart="694.00" from="-1072" to="508"/>
    <trip id="173" depart="695.00" from="-1072" to="1907"/>
    <trip id="174" depart="697.00" from="-1916" to="508"/>
    <trip id="175" depart="705.00" from="-1907" to="1916"/>
    <trip id="176" depart="706.00" from="-1907" to="1072"/>
    <trip id="177" depart="709.00" from="-1916" to="462"/>
    <trip id="178" depart="711.00" from="-1916" to="508"/>
    <trip id="179" depart="715.00" from="270" to="1912"/>
    <trip id="180" depart="717.00" from="-1072" to="315"/>
    <trip id="181" depart="721.00" from="270" to="462"/>
    <trip id="182" depart="724.00" from="-1912" to="-270"/>
    <trip id="183" depart="732.00" from="-315" to="1916"/>
    <trip id="184" depart="739.00" from="-462" to="1916"/>
    <trip id="185" depart="743.00" from="-315" to="1916"/>
    <trip id="186" depart="744.00" from="-315" to="1916"/>
    <trip id="187" depart="747.00" from="-315" to="462"/>
    <trip id="188" depart="752.00" from="-1072" to="1907"/>
    <trip id="189" depart="754.00" from="-315" to="1072"/>
    <trip id="190" depart="764.00" from="-1912" to="-270"/>
    <trip id="191" depart="769.00" from="-508" to="1072"/>
    <trip id="192" depart="775.00" from="-315" to="462"/>
    <trip id="193" depart="779.00" from="-315" to="462"/>
    <trip id="194" depart="783.00" from="-1912" to="1916"/>
    <trip id="195" depart="788.00" from="-1907" to="1072"/>
    <trip id="196" depart="789.00" from="-462" to="-270"/>
    <trip id="197" depart="790.00" from="-1072" to="315"/>
    <trip id="198" depart="792.00" from="270" to="1912"/>
    <trip id="199" depart="795.00" from="-1916" to="315"/>
    <trip id="200" depart="798.00" from="-1912" to="462"/>
    <trip id="201" depart="800.00" from="-462" to="315"/>
    <trip id="202" depart="802.00" from="270" to="1916"/>
    <trip id="203" depart="805.00" from="-1912" to="1916"/>
    <trip id="204" depart="807.00" from="-1072" to="1912"/>
    <trip id="205" depart="815.00" from="-1072" to="1912"/>
    <trip id="206" depart="821.00" from="-508" to="1916"/>
    <trip id="207" depart="823.00" from="-1916" to="462"/>
    <trip id="208" depart="825.00" from="270" to="1912"/>
    <trip id="209" depart="830.00" from="-1912" to="462"/>
    <trip id="210" depart="830.00" from="-1916" to="305"/>
    <trip id="211" depart="831.00" from="-1072" to="1907"/>
    <trip id="212" depart="834.00" from="-1072" to="508"/>
    <trip id="213" depart="835.00" from="-1907" to="1916"/>
    <trip id="214" depart="836.00" from="-315" to="1072"/>
    <trip id="215" depart="842.00" from="-315" to="1916"/>
    <trip id="216" depart="847.00" from="-1072" to="1907"/>
    <trip id="217" depart="852.00" from="-1907" to="1916"/>
    <trip id="218" depart="861.00" from="-1916" to="1907"/>
    <trip id="219" depart="864.00" from="270" to="462"/>
    <trip id="220" depart="864.00" from="270" to="462"/>
    <trip id="221" depart="869.00" from="-1072" to="1907"/>
    <trip id="222" depart="869.00" from="-1912" to="462"/>
    <trip id="223" depart="874.00" from="-1916" to="462"/>
    <trip id="224" depart="875.00" from="-1916" to="-270"/>
    <trip id="225" depart="878.00" from="-1916" to="315"/>
    <trip id="226" depart="878.00" from="-1916" to="462"/>
    <trip id="227" depart="881.00" from="-1072" to="1907"/>
    <trip id="228" depart="898.00" from="-508" to="1916"/>
    <trip id="229" depart="901.00" from="-1912" to="1916"/>
    <trip id="230" depart="906.00" from="-508" to="1916"/>
    <trip id="231" depart="908.00" from="-1912" to="1072"/>
    <trip id="232" depart="915.00" from="-315" to="462"/>
    <trip id="233" depart="921.00" from="-1072" to="1907"/>
    <trip id="234" depart="930.00" from="-315" to="462"/>
    <trip id="235" depart="930.00" from="-315" to="462"/>
    <trip id="236" depart="933.00" from="-1912" to="1072"/>
    <trip id="237" depart="934.00" from="-1907" to="1072"/>
    <trip id="238" depart="940.00" from="-1072" to="315"/>
    <trip id="239" depart="942.00" from="-1916" to="1912"/>
    <trip id="240" depart="944.00" from="-508" to="1916"/>
    <trip id="241" depart="945.00" from="-1912" to="1072"/>
    <trip id="242" depart="946.00" from="270" to="1912"/>
    <trip id="243" depart="949.00" from="-508" to="1916"/>
    <trip id="244" depart="954.00" from="-1072" to="508"/>
    <trip id="245" depart="962.00" from="-462" to="315"/>
    <trip id="246" depart="962.00" from="-1072" to="1907"/>
    <trip id="247" depart="967.00" from="270" to="1916"/>
    <trip id="248" depart="968.00" from="-1912" to="1916"/>
    <trip id="249" depart="976.00" from="-1916" to="1907"/>
    <trip id="250" depart="976.00" from="-1916" to="462"/>
    <trip id="251" depart="980.00" from="-1912" to="-270"/>
    <trip id="252" depart="986.00" from="-1912" to="1916"/>
    <trip id="253" depart="991.00" from="-1072" to="315"/>
    <trip id="254" depart="993.00" from="-315" to="462"/>
    <trip id="255" depart="995.00" from="-1916" to="-307"/>
    <trip id="256" depart="996.00" from="-1912" to="-270"/>
    <trip id="257" depart="997.00" from="-1916" to="1912"/>
    <trip id="258" depart="999.00" from="270" to="1916"/>
    <trip id="259" depart="1008.00" from="-1072" to="315"/>
    <trip id="260" depart="1009.00" from="-1916" to="315"/>
    <trip id="261" depart="1015.00" from="-462" to="315"/>
    <trip id="262" depart="1016.00" from="-1912" to="1072"/>
    <trip id="263" depart="1023.00" from="-508" to="1916"/>
    <trip id="264" depart="1030.00" from="-1916" to="1907"/>
    <trip id="265" depart="1035.00" from="-1912" to="462"/>
    <trip id="266" depart="1036.00" from="-1072" to="1912"/>
    <trip id="267" depart="1037.00" from="-1916" to="-270"/>
    <trip id="268" depart="1040.00" from="-1912" to="1072"/>
    <trip id="269" depart="1041.00" from="-315" to="462"/>
    <trip id="270" depart="1046.00" from="270" to="462"/>
    <trip id="271" depart="1051.00" from="-1916" to="508"/>
    <trip id="272" depart="1061.00" from="-315" to="1072"/>
    <trip id="273" depart="1064.00" from="-1912" to="1916"/>
    <trip id="274" depart="1067.00" from="-1072" to="1907"/>
    <trip id="275" depart="1075.00" from="270" to="462"/>
    <trip id="276" depart="1084.00" from="-315" to="462"/>
    <trip id="277" depart="1091.00" from="-1912" to="-270"/>
    <trip id="278" depart="1095.00" from="-1072" to="1907"/>
    <trip id="279" depart="1095.00" from="-1916" to="-270"/>
    <trip id="280" depart="1103.00" from="270" to="462"/>
    <trip id="281" depart="1106.00" from="-1907" to="1072"/>
    <trip id="282" depart="1119.00" from="-508" to="1072"/>
    <trip id="283" depart="1126.00" from="-1907" to="1072"/>
    <trip id="284" depart="1129.00" from="270" to="1916"/>
    <trip id="285" depart="1132.00" from="270" to="1912"/>
    <trip id="286" depart="1134.00" from="-1916" to="508"/>
    <trip id="287" depart="1137.00" from="-1907" to="1916"/>
    <trip id="288" depart="1139.00" from="-508" to="1072"/>
    <trip id="289" depart="1140.00" from="-1907" to="1072"/>
    <trip id="290" depart="1143.00" from="-462" to="-270"/>
    <trip id="291" depart="1146.00" from="-1916" to="-270"/>
    <trip id="292" depart="1147.00" from="-1916" to="1907"/>
    <trip id="293" depart="1149.00" from="-1912" to="1072"/>
    <trip id="294" depart="1153.00" from="-508" to="1916"/>
    <trip id="295" depart="1156.00" from="-1912" to="1072"/>
    <trip id="296" depart="1156.00" from="-1072" to="1912"/>
    <trip id="297" depart="1164.00" from="-462" to="315"/>
    <trip id="298" depart="1164.00" from="-462" to="1916"/>
    <trip id="299" depart="1170.00" from="-1072" to="1907"/>
    <trip id="300" depart="1171.00" from="-1916" to="315"/>
    <trip id="301" depart="1174.00" from="-1916" to="1907"/>
    <trip id="302" depart="1174.00" from="-462" to="315"/>
    <trip id="303" depart="1183.00" from="-1072" to="508"/>
    <trip id="304" depart="1184.00" from="270" to="1912"/>
    <trip id="305" depart="1186.00" from="-1072" to="1912"/>
    <trip id="306" depart="1188.00" from="-1916" to="1912"/>
    <trip id="307" depart="1190.00" from="270" to="462"/>
    <trip id="308" depart="1192.00" from="-462" to="-270"/>
    <trip id="309" depart="1195.00" from="-1072" to="315"/>
    <trip id="310" depart="1195.00" from="270" to="462"/>
    <trip id="311" depart="1198.00" from="-1907" to="1916"/>
    <trip id="312" depart="1207.00" from="270" to="1912"/>
    <trip id="313" depart="1210.00" from="-1912" to="1916"/>
    <trip id="314" depart="1217.00" from="-462" to="1912"/>
    <trip id="315" depart="1223.00" from="-1907" to="1072"/>
    <trip id="316" depart="1224.00" from="-1916" to="462"/>
    <trip id="317" depart="1227.00" from="-1916" to="315"/>
    <trip id="318" depart="1227.00" from="-1916" to="1912"/>
    <trip id="319" depart="1230.00" from="-1907" to="1916"/>
    <trip id="320" depart="1231.00" from="-1916" to="462"/>
    <trip id="321" depart="1234.00" from="-1072" to="1912"/>
    <trip id="322" depart="1242.00" from="-1072" to="508"/>
    <trip id="323" depart="1243.00" from="-1912" to="1916"/>
    <trip id="324" depart="1251.00" from="-1916" to="1912"/>
    <trip id="325" depart="1253.00" from="-1916" to="462"/>
    <trip id="326" depart="1260.00" from="-462" to="1912"/>
    <trip id="327" depart="1262.00" from="-1916" to="-270"/>
    <trip id="328" depart="1267.00" from="-1916" to="462"/>
    <trip id="329" depart="1270.00" from="270" to="1916"/>
    <trip id="330" depart="1275.00" from="-508" to="1916"/>
    <trip id="331" depart="1275.00" from="-1907" to="1916"/>
    <trip id="332" depart="1279.00" from="-462" to="315"/>
    <trip id="333" depart="1286.00" from="-462" to="1916"/>
    <trip id="334" depart="1286.00" from="-1912" to="462"/>
    <trip id="335" depart="1293.00" from="-508" to="1916"/>
    <trip id="336" depart="1304.00" from="-1072" to="315"/>
    <trip id="337" depart="1304.00" from="-1912" to="462"/>
    <trip id="338" depart="1308.00" from="-1912" to="1072"/>
    <trip id="339" depart="1311.00" from="-462" to="315"/>
    <trip id="340" depart="1312.00" from="-508" to="1072"/>
    <trip id="341" depart="1317.00" from="-1072" to="1907"/>
    <trip id="342" depart="1324.00" from="-1916" to="315"/>
    <trip id="343" depart="1325.00" from="-1912" to="462"/>
    <trip id="344" depart="1329.00" from="270" to="1916"/>
    <trip id="345" depart="1330.00" from="-1912" to="462"/>
    <trip id="346" depart="1333.00" from="-508" to="1916"/>
    <trip id="347" depart="1339.00" from="-315" to="1072"/>
    <trip id="348" depart="1341.00" from="-1072" to="1907"/>
    <trip id="349" depart="1345.00" from="-462" to="1916"/>
    <trip id="350" depart="1347.00" from="-1072" to="315"/>
    <trip id="351" depart="1348.00" from="-1912" to="1072"/>
    <trip id="352" depart="1351.00" from="270" to="1912"/>
    <trip id="353" depart="1358.00" from="-508" to="1916"/>
    <trip id="354" depart="1360.00" from="-508" to="1072"/>
    <trip id="355" depart="1361.00" from="-1072" to="315"/>
    <trip id="356" depart="1362.00" from="-1072" to="1907"/>
    <trip id="357" depart="1366.00" from="270" to="1912"/>
    <trip id="358" depart="1367.00" from="-462" to="315"/>
    <trip id="359" depart="1374.00" from="-462" to="1916"/>
    <trip id="360" depart="1374.00" from="-1907" to="1072"/>
    <trip id="361" depart="1386.00" from="-1912" to="-270"/>
    <trip id="362" depart="1388.00" from="-1912" to="1916"/>
    <trip id="363" depart="1390.00" from="-1912" to="-270"/>
    <trip id="364" depart="1390.00" from="-1912" to="1072"/>
    <trip id="365" depart="1390.00" from="-1916" to="462"/>
    <trip id="366" depart="1405.00" from="-1907" to="1916"/>
    <trip id="367" depart="1406.00" from="-462" to="315"/>
    <trip id="368" depart="1406.00" from="-1916" to="1912"/>
    <trip id="369" depart="1411.00" from="-1072" to="315"/>
    <trip id="370" depart="1412.00" from="-1072" to="508"/>
    <trip id="371" depart="1413.00" from="-1916" to="1907"/>
    <trip id="372" depart="1414.00" from="-1912" to="462"/>
    <trip id="373" depart="1418.00" from="270" to="462"/>
    <trip id="374" depart="1422.00" from="-315" to="1072"/>
    <trip id="375" depart="1423.00" from="-1916" to="462"/>
    <trip id="376" depart="1425.00" from="-462" to="1916"/>
    <trip id="377" depart="1426.00" from="-315" to="462"/>
    <trip id="378" depart="1430.00" from="-1072" to="1912"/>
    <trip id="379" depart="1431.00" from="-1072" to="508"/>
    <trip id="380" depart="1435.00" from="-1912" to="-270"/>
    <trip id="381" depart="1441.00" from="-1916" to="1907"/>
    <trip id="382" depart="1441.00" from="-1912" to="462"/>
    <trip id="383" depart="1446.00" from="-1072" to="1907"/>
    <trip id="384" depart="1446.00" from="-1916" to="508"/>
    <trip id="385" depart="1456.00" from="-1916" to="1907"/>
    <trip id="386" depart="1462.00" from="-1916" to="315"/>
    <trip id="387" depart="1462.00" from="-1912" to="1072"/>
    <trip id="388" depart="1471.00" from="-1916" to="1912"/>
    <trip id="389" depart="1473.00" from="-1907" to="1916"/>
    <trip id="390" depart="1479.00" from="-1072" to="315"/>
    <trip id="391" depart="1480.00" from="-1072" to="1907"/>
    <trip id="392" depart="1483.00" from="270" to="1916"/>
    <trip id="393" depart="1483.00" from="-462" to="1912"/>
    <trip id="394" depart="1484.00" from="-1912" to="-270"/>
    <trip id="395" depart="1485.00" from="-1912" to="1072"/>
    <trip id="396" depart="1488.00" from="270" to="462"/>
    <trip id="397" depart="1489.00" from="270" to="1916"/>
    <trip id="398" depart="1489.00" from="-1912" to="1072"/>
    <trip id="399" depart="1494.00" from="-462" to="-270"/>
    <trip id="400" depart="1495.00" from="270" to="462"/>
    <trip id="401" depart="1500.00" from="-1072" to="1912"/>
    <trip id="402" depart="1510.00" from="-1072" to="315"/>
    <trip id="403" depart="1510.00" from="-1069" to="-270"/>
    <trip id="404" depart="1514.00" from="-1916" to="508"/>
    <trip id="405" depart="1514.00" from="-462" to="1916"/>
    <trip id="406" depart="1514.00" from="270" to="1912"/>
    <trip id="407" depart="1519.00" from="-1916" to="1907"/>
    <trip id="408" depart="1522.00" from="-508" to="1916"/>
    <trip id="409" depart="1527.00" from="-1916" to="-270"/>
    <trip id="410" depart="1535.00" from="-462" to="1912"/>
    <trip id="411" depart="1538.00" from="-1907" to="1916"/>
    <trip id="412" depart="1543.00" from="-1916" to="-307"/>
    <trip id="413" depart="1557.00" from="-1072" to="508"/>
    <trip id="414" depart="1560.00" from="-315" to="462"/>
    <trip id="415" depart="1563.00" from="-462" to="-270"/>
    <trip id="416" depart="1566.00" from="-1907" to="1072"/>
    <trip id="417" depart="1575.00" from="-1916" to="1912"/>
    <trip id="418" depart="1578.00" from="-462" to="1916"/>
    <trip id="419" depart="1579.00" from="-1907" to="1072"/>
    <trip id="420" depart="1579.00" from="-462" to="315"/>
    <trip id="421" depart="1582.00" from="270" to="1916"/>
    <trip id="422" depart="1585.00" from="-1916" to="1907"/>
    <trip id="423" depart="1595.00" from="270" to="1916"/>
    <trip id="424" depart="1602.00" from="-1916" to="462"/>
    <trip id="425" depart="1608.00" from="-508" to="1072"/>
    <trip id="426" depart="1611.00" from="-1916" to="462"/>
    <trip id="427" depart="1619.00" from="-508" to="1072"/>
    <trip id="428" depart="1620.00" from="-315" to="1072"/>
    <trip id="429" depart="1621.00" from="-315" to="1916"/>
    <trip id="430" depart="1621.00" from="-315" to="1916"/>
    <trip id="431" depart="1629.00" from="-1912" to="1916"/>
    <trip id="432" depart="1630.00" from="-508" to="1072"/>
    <trip id="433" depart="1635.00" from="-315" to="1072"/>
    <trip id="434" depart="1636.00" from="-1907" to="1072"/>
    <trip id="435" depart="1642.00" from="270" to="1912"/>
    <trip id="436" depart="1643.00" from="270" to="1916"/>
    <trip id="437" depart="1647.00" from="-1916" to="1907"/>
    <trip id="438" depart="1648.00" from="-1072" to="1912"/>
    <trip id="439" depart="1653.00" from="270" to="1916"/>
    <trip id="440" depart="1656.00" from="-1912" to="1916"/>
    <trip id="441" depart="1657.00" from="-1072" to="1912"/>
    <trip id="442" depart="1663.00" from="-1907" to="1072"/>
    <trip id="443" depart="1672.00" from="-1912" to="-270"/>
    <trip id="444" depart="1681.00" from="-1912" to="1916"/>
    <trip id="445" depart="1684.00" from="-315" to="462"/>
    <trip id="446" depart="1687.00" from="-1907" to="1916"/>
    <trip id="447" depart="1687.00" from="270" to="1916"/>
    <trip id="448" depart="1694.00" from="-1912" to="-270"/>
    <trip id="449" depart="1696.00" from="-1916" to="508"/>
    <trip id="450" depart="1698.00" from="-1907" to="1916"/>
    <trip id="451" depart="1700.00" from="270" to="462"/>
    <trip id="452" depart="1705.00" from="-1072" to="315"/>
    <trip id="453" depart="1711.00" from="-1072" to="1912"/>
    <trip id="454" depart="1713.00" from="270" to="462"/>
    <trip id="455" depart="1714.00" from="-1912" to="1072"/>
    <trip id="456" depart="1715.00" from="-1912" to="1072"/>
    <trip id="457" depart="1717.00" from="270" to="462"/>
    <trip id="458" depart="1721.00" from="-1072" to="1907"/>
    <trip id="459" depart="1724.00" from="-1072" to="508"/>
    <trip id="460" depart="1724.00" from="-1907" to="1072"/>
    <trip id="461" depart="1724.00" from="-315" to="1072"/>
    <trip id="462" depart="1725.00" from="-315" to="1916"/>
    <trip id="463" depart="1725.00" from="270" to="462"/>
    <trip id="464" depart="1731.00" from="-1072" to="1907"/>
    <trip id="465" depart="1735.00" from="-1912" to="1072"/>
    <trip id="466" depart="1736.00" from="-1072" to="1912"/>
    <trip id="467" depart="1736.00" from="-1072" to="315"/>
    <trip id="468" depart="1739.00" from="-1072" to="1912"/>
    <trip id="469" depart="1748.00" from="-462" to="1916"/>
    <trip id="470" depart="1749.00" from="-1912" to="462"/>
    <trip id="471" depart="1750.00" from="270" to="1912"/>
    <trip id="472" depart="1754.00" from="-1072" to="508"/>
    <trip id="473" depart="1755.00" from="-1916" to="508"/>
    <trip id="474" depart="1755.00" from="-462" to="-270"/>
    <trip id="475" depart="1757.00" from="-508" to="1916"/>
    <trip id="476" depart="1758.00" from="-462" to="315"/>
    <trip id="477" depart="1759.00" from="-1072" to="508"/>
    <trip id="478" depart="1761.00" from="-315" to="462"/>