<?xml version="1.0" encoding="UTF-8"?>

<!-- generated on 2025-03-10 17:25:53 by Eclipse SUMO netedit Version 1.20.0
<configuration xmlns:xsi="http://www.w3.org/2001/XMLSchema-instance" xsi:noNamespaceSchemaLocation="http://sumo.dlr.de/xsd/neteditConfiguration.xsd">

    <input>
        <sumo-net-file value="/Volumes/Crucial_X6/repos/pytsc/pytsc/scenarios/sumo/random_grid_subnetworks/random_subnetwork_2.net.xml"/>
    </input>

    <output>
        <output-file value="/Volumes/Crucial_X6/repos/pytsc/pytsc/scenarios/sumo/random_grid_subnetworks/random_subnetwork_2.net.xml"/>
    </output>

    <processing>
        <geometry.min-radius.fix.railways value="false"/>
        <geometry.max-grade.fix value="false"/>
        <offset.disable-normalization value="true"/>
        <lefthand value="0"/>
    </processing>

    <junctions>
        <no-turnarounds value="true"/>
        <junctions.corner-detail value="5"/>
        <junctions.limit-turn-speed value="5.50"/>
        <rectangular-lane-cut value="0"/>
    </junctions>

    <pedestrian>
        <walkingareas value="0"/>
    </pedestrian>

</configuration>
-->

<net version="1.20" junctionCornerDetail="5" limitTurnSpeed="5.50" xmlns:xsi="http://www.w3.org/2001/XMLSchema-instance" xsi:noNamespaceSchemaLocation="http://sumo.dlr.de/xsd/net_file.xsd">

    <location netOffset="2000.00,1800.00" convBoundary="800.00,800.00,2800.00,2600.00" origBoundary="-2000.00,-1800.00,800.00,1200.00" projParameter="!"/>

    <edge id=":1_0" function="internal">
        <lane id=":1_0_0" index="0" speed="6.51" length="9.03" shape="1995.20,1810.40 1994.85,1807.95 1993.80,1806.20 1992.05,1805.15 1989.60,1804.80"/>
    </edge>
    <edge id=":1_1" function="internal">
        <lane id=":1_1_0" index="0" speed="13.89" length="20.80" shape="1995.20,1810.40 1995.20,1789.60"/>
        <lane id=":1_1_1" index="1" speed="13.89" length="20.80" shape="1998.40,1810.40 1998.40,1789.60"/>
    </edge>
    <edge id=":1_3" function="internal">
        <lane id=":1_3_0" index="0" speed="9.26" length="5.01" shape="1998.40,1810.40 1999.11,1805.44"/>
    </edge>
    <edge id=":1_16" function="internal">
        <lane id=":1_16_0" index="0" speed="9.26" length="14.34" shape="1999.11,1805.44 1999.15,1805.15 2001.40,1801.40 2005.15,1799.15 2010.40,1798.40"/>
    </edge>
    <edge id=":1_4" function="internal">
        <lane id=":1_4_0" index="0" speed="6.51" length="9.03" shape="2010.40,1804.80 2007.95,1805.15 2006.20,1806.20 2005.15,1807.95 2004.80,1810.40"/>
    </edge>
    <edge id=":1_5" function="internal">
        <lane id=":1_5_0" index="0" speed="13.89" length="20.80" shape="2010.40,1804.80 1989.60,1804.80"/>
        <lane id=":1_5_1" index="1" speed="13.89" length="20.80" shape="2010.40,1801.60 1989.60,1801.60"/>
    </edge>
    <edge id=":1_7" function="internal">
        <lane id=":1_7_0" index="0" speed="9.26" length="5.01" shape="2010.40,1801.60 2005.44,1800.89"/>
    </edge>
    <edge id=":1_17" function="internal">
        <lane id=":1_17_0" index="0" speed="9.26" length="14.34" shape="2005.44,1800.89 2005.15,1800.85 2001.40,1798.60 1999.15,1794.85 1998.40,1789.60"/>
    </edge>
    <edge id=":1_8" function="internal">
        <lane id=":1_8_0" index="0" speed="6.51" length="9.03" shape="2004.80,1789.60 2005.15,1792.05 2006.20,1793.80 2007.95,1794.85 2010.40,1795.20"/>
    </edge>
    <edge id=":1_9" function="internal">
        <lane id=":1_9_0" index="0" speed="13.89" length="20.80" shape="2004.80,1789.60 2004.80,1810.40"/>
        <lane id=":1_9_1" index="1" speed="13.89" length="20.80" shape="2001.60,1789.60 2001.60,1810.40"/>
    </edge>
    <edge id=":1_11" function="internal">
        <lane id=":1_11_0" index="0" speed="9.26" length="5.01" shape="2001.60,1789.60 2000.89,1794.56"/>
    </edge>
    <edge id=":1_18" function="internal">
        <lane id=":1_18_0" index="0" speed="9.26" length="14.34" shape="2000.89,1794.56 2000.85,1794.85 1998.60,1798.60 1994.85,1800.85 1989.60,1801.60"/>
    </edge>
    <edge id=":1_12" function="internal">
        <lane id=":1_12_0" index="0" speed="6.51" length="9.03" shape="1989.60,1795.20 1992.05,1794.85 1993.80,1793.80 1994.85,1792.05 1995.20,1789.60"/>
    </edge>
    <edge id=":1_13" function="internal">
        <lane id=":1_13_0" index="0" speed="13.89" length="20.80" shape="1989.60,1795.20 2010.40,1795.20"/>
        <lane id=":1_13_1" index="1" speed="13.89" length="20.80" shape="1989.60,1798.40 2010.40,1798.40"/>
    </edge>
    <edge id=":1_15" function="internal">
        <lane id=":1_15_0" index="0" speed="9.26" length="5.01" shape="1989.60,1798.40 1994.56,1799.11"/>
    </edge>
    <edge id=":1_19" function="internal">
        <lane id=":1_19_0" index="0" speed="9.26" length="14.34" shape="1994.56,1799.11 1994.85,1799.15 1998.60,1801.40 2000.85,1805.15 2001.60,1810.40"/>
    </edge>
    <edge id=":10_0" function="internal">
        <lane id=":10_0_0" index="0" speed="13.89" length="20.80" shape="1795.20,1810.40 1795.20,1789.60"/>
        <lane id=":10_0_1" index="1" speed="13.89" length="20.80" shape="1798.40,1810.40 1798.40,1789.60"/>
    </edge>
    <edge id=":10_2" function="internal">
        <lane id=":10_2_0" index="0" speed="9.26" length="5.01" shape="1798.40,1810.40 1799.11,1805.44"/>
    </edge>
    <edge id=":10_9" function="internal">
        <lane id=":10_9_0" index="0" speed="9.26" length="14.34" shape="1799.11,1805.44 1799.15,1805.15 1801.40,1801.40 1805.15,1799.15 1810.40,1798.40"/>
    </edge>
    <edge id=":10_3" function="internal">
        <lane id=":10_3_0" index="0" speed="6.51" length="9.03" shape="1810.40,1804.80 1807.95,1805.15 1806.20,1806.20 1805.15,1807.95 1804.80,1810.40"/>
        <lane id=":10_3_1" index="1" speed="8.00" length="14.19" shape="1810.40,1801.60 1806.55,1802.15 1803.80,1803.80 1802.15,1806.55 1801.60,1810.40"/>
    </edge>
    <edge id=":10_5" function="internal">
        <lane id=":10_5_0" index="0" speed="9.26" length="19.35" shape="1810.40,1801.60 1805.15,1800.85 1801.40,1798.60 1799.15,1794.85 1798.40,1789.60"/>
    </edge>
    <edge id=":10_6" function="internal">
        <lane id=":10_6_0" index="0" speed="6.51" length="9.03" shape="1804.80,1789.60 1805.15,1792.05 1806.20,1793.80 1807.95,1794.85 1810.40,1795.20"/>
    </edge>
    <edge id=":10_7" function="internal">
        <lane id=":10_7_0" index="0" speed="13.89" length="20.80" shape="1804.80,1789.60 1804.80,1810.40"/>
        <lane id=":10_7_1" index="1" speed="13.89" length="20.80" shape="1801.60,1789.60 1801.60,1810.40"/>
    </edge>
    <edge id=":14_0" function="internal">
        <lane id=":14_0_0" index="0" speed="13.89" length="20.80" shape="2010.40,2204.80 1989.60,2204.80"/>
        <lane id=":14_0_1" index="1" speed="13.89" length="20.80" shape="2010.40,2201.60 1989.60,2201.60"/>
    </edge>
    <edge id=":14_2" function="internal">
        <lane id=":14_2_0" index="0" speed="9.26" length="5.01" shape="2010.40,2201.60 2005.44,2200.89"/>
    </edge>
    <edge id=":14_9" function="internal">
        <lane id=":14_9_0" index="0" speed="9.26" length="14.34" shape="2005.44,2200.89 2005.15,2200.85 2001.40,2198.60 1999.15,2194.85 1998.40,2189.60"/>
    </edge>
    <edge id=":14_3" function="internal">
        <lane id=":14_3_0" index="0" speed="6.51" length="9.03" shape="2004.80,2189.60 2005.15,2192.05 2006.20,2193.80 2007.95,2194.85 2010.40,2195.20"/>
        <lane id=":14_3_1" index="1" speed="8.00" length="14.19" shape="2001.60,2189.60 2002.15,2193.45 2003.80,2196.20 2006.55,2197.85 2010.40,2198.40"/>
    </edge>
    <edge id=":14_5" function="internal">
        <lane id=":14_5_0" index="0" speed="9.26" length="19.35" shape="2001.60,2189.60 2000.85,2194.85 1998.60,2198.60 1994.85,2200.85 1989.60,2201.60"/>
    </edge>
    <edge id=":14_6" function="internal">
        <lane id=":14_6_0" index="0" speed="6.51" length="9.03" shape="1989.60,2195.20 1992.05,2194.85 1993.80,2193.80 1994.85,2192.05 1995.20,2189.60"/>
    </edge>
    <edge id=":14_7" function="internal">
        <lane id=":14_7_0" index="0" speed="13.89" length="20.80" shape="1989.60,2195.20 2010.40,2195.20"/>
        <lane id=":14_7_1" index="1" speed="13.89" length="20.80" shape="1989.60,2198.40 2010.40,2198.40"/>
    </edge>
    <edge id=":1438_0" function="internal">
        <lane id=":1438_0_0" index="0" speed="8.96" length="18.06" shape="1206.40,2004.80 1201.50,2004.10 1198.00,2002.00 1195.90,1998.50 1195.20,1993.60"/>
        <lane id=":1438_0_1" index="1" speed="7.66" length="12.90" shape="1206.40,2001.60 1202.90,2001.10 1200.40,1999.60 1198.90,1997.10 1198.40,1993.60"/>
    </edge>
    <edge id=":1438_2" function="internal">
        <lane id=":1438_2_0" index="0" speed="3.90" length="2.58" shape="1204.80,1993.60 1204.90,1994.30 1205.20,1994.80 1205.70,1995.10 1206.40,1995.20"/>
        <lane id=":1438_2_1" index="1" speed="6.08" length="7.74" shape="1201.60,1993.60 1201.90,1995.70 1202.80,1997.20 1204.30,1998.10 1206.40,1998.40"/>
    </edge>
    <edge id=":153_0" function="internal">
        <lane id=":153_0_0" index="0" speed="13.89" length="20.80" shape="1810.40,1404.80 1789.60,1404.80"/>
        <lane id=":153_0_1" index="1" speed="13.89" length="20.80" shape="1810.40,1401.60 1789.60,1401.60"/>
    </edge>
    <edge id=":153_2" function="internal">
        <lane id=":153_2_0" index="0" speed="9.26" length="5.01" shape="1810.40,1401.60 1805.44,1400.89"/>
    </edge>
    <edge id=":153_9" function="internal">
        <lane id=":153_9_0" index="0" speed="9.26" length="14.34" shape="1805.44,1400.89 1805.15,1400.85 1801.40,1398.60 1799.15,1394.85 1798.40,1389.60"/>
    </edge>
    <edge id=":153_3" function="internal">
        <lane id=":153_3_0" index="0" speed="6.51" length="9.03" shape="1804.80,1389.60 1805.15,1392.05 1806.20,1393.80 1807.95,1394.85 1810.40,1395.20"/>
        <lane id=":153_3_1" index="1" speed="8.00" length="14.19" shape="1801.60,1389.60 1802.15,1393.45 1803.80,1396.20 1806.55,1397.85 1810.40,1398.40"/>
    </edge>
    <edge id=":153_5" function="internal">
        <lane id=":153_5_0" index="0" speed="9.26" length="19.35" shape="1801.60,1389.60 1800.85,1394.85 1798.60,1398.60 1794.85,1400.85 1789.60,1401.60"/>
    </edge>
    <edge id=":153_6" function="internal">
        <lane id=":153_6_0" index="0" speed="6.51" length="9.03" shape="1789.60,1395.20 1792.05,1394.85 1793.80,1393.80 1794.85,1392.05 1795.20,1389.60"/>
    </edge>
    <edge id=":153_7" function="internal">
        <lane id=":153_7_0" index="0" speed="13.89" length="20.80" shape="1789.60,1395.20 1810.40,1395.20"/>
        <lane id=":153_7_1" index="1" speed="13.89" length="20.80" shape="1789.60,1398.40 1810.40,1398.40"/>
    </edge>
    <edge id=":1572_0" function="internal">
        <lane id=":1572_0_0" index="0" speed="6.51" length="9.03" shape="1195.20,1610.40 1194.85,1607.95 1193.80,1606.20 1192.05,1605.15 1189.60,1604.80"/>
        <lane id=":1572_0_1" index="1" speed="8.00" length="14.19" shape="1198.40,1610.40 1197.85,1606.55 1196.20,1603.80 1193.45,1602.15 1189.60,1601.60"/>
    </edge>
    <edge id=":1572_2" function="internal">
        <lane id=":1572_2_0" index="0" speed="9.26" length="19.35" shape="1198.40,1610.40 1199.15,1605.15 1201.40,1601.40 1205.15,1599.15 1210.40,1598.40"/>
    </edge>
    <edge id=":1572_3" function="internal">
        <lane id=":1572_3_0" index="0" speed="6.51" length="9.03" shape="1210.40,1604.80 1207.95,1605.15 1206.20,1606.20 1205.15,1607.95 1204.80,1610.40"/>
    </edge>
    <edge id=":1572_4" function="internal">
        <lane id=":1572_4_0" index="0" speed="13.89" length="20.80" shape="1210.40,1604.80 1189.60,1604.80"/>
        <lane id=":1572_4_1" index="1" speed="13.89" length="20.80" shape="1210.40,1601.60 1189.60,1601.60"/>
    </edge>
    <edge id=":1572_6" function="internal">
        <lane id=":1572_6_0" index="0" speed="13.89" length="20.80" shape="1189.60,1595.20 1210.40,1595.20"/>
        <lane id=":1572_6_1" index="1" speed="13.89" length="20.80" shape="1189.60,1598.40 1210.40,1598.40"/>
    </edge>
    <edge id=":1572_8" function="internal">
        <lane id=":1572_8_0" index="0" speed="9.26" length="5.01" shape="1189.60,1598.40 1194.56,1599.11"/>
    </edge>
    <edge id=":1572_9" function="internal">
        <lane id=":1572_9_0" index="0" speed="9.26" length="14.34" shape="1194.56,1599.11 1194.85,1599.15 1198.60,1601.40 1200.85,1605.15 1201.60,1610.40"/>
    </edge>
    <edge id=":2_0" function="internal">
        <lane id=":2_0_0" index="0" speed="6.51" length="9.03" shape="1995.20,1410.40 1994.85,1407.95 1993.80,1406.20 1992.05,1405.15 1989.60,1404.80"/>
    </edge>
    <edge id=":2_1" function="internal">
        <lane id=":2_1_0" index="0" speed="13.89" length="20.80" shape="1995.20,1410.40 1995.20,1389.60"/>
        <lane id=":2_1_1" index="1" speed="13.89" length="20.80" shape="1998.40,1410.40 1998.40,1389.60"/>
    </edge>
    <edge id=":2_3" function="internal">
        <lane id=":2_3_0" index="0" speed="13.89" length="20.80" shape="2004.80,1389.60 2004.80,1410.40"/>
        <lane id=":2_3_1" index="1" speed="13.89" length="20.80" shape="2001.60,1389.60 2001.60,1410.40"/>
    </edge>
    <edge id=":2_5" function="internal">
        <lane id=":2_5_0" index="0" speed="9.26" length="5.01" shape="2001.60,1389.60 2000.89,1394.56"/>
    </edge>
    <edge id=":2_9" function="internal">
        <lane id=":2_9_0" index="0" speed="9.26" length="14.34" shape="2000.89,1394.56 2000.85,1394.85 1998.60,1398.60 1994.85,1400.85 1989.60,1401.60"/>
    </edge>
    <edge id=":2_6" function="internal">
        <lane id=":2_6_0" index="0" speed="6.51" length="9.03" shape="1989.60,1395.20 1992.05,1394.85 1993.80,1393.80 1994.85,1392.05 1995.20,1389.60"/>
        <lane id=":2_6_1" index="1" speed="8.00" length="14.19" shape="1989.60,1398.40 1993.45,1397.85 1996.20,1396.20 1997.85,1393.45 1998.40,1389.60"/>
    </edge>
    <edge id=":2_8" function="internal">
        <lane id=":2_8_0" index="0" speed="9.26" length="19.35" shape="1989.60,1398.40 1994.85,1399.15 1998.60,1401.40 2000.85,1405.15 2001.60,1410.40"/>
    </edge>
    <edge id=":20_0" function="internal">
        <lane id=":20_0_0" index="0" speed="6.51" length="9.03" shape="1995.20,1210.40 1994.85,1207.95 1993.80,1206.20 1992.05,1205.15 1989.60,1204.80"/>
    </edge>
    <edge id=":20_1" function="internal">
        <lane id=":20_1_0" index="0" speed="13.89" length="20.80" shape="1995.20,1210.40 1995.20,1189.60"/>
        <lane id=":20_1_1" index="1" speed="13.89" length="20.80" shape="1998.40,1210.40 1998.40,1189.60"/>
    </edge>
    <edge id=":20_3" function="internal">
        <lane id=":20_3_0" index="0" speed="13.89" length="20.80" shape="2004.80,1189.60 2004.80,1210.40"/>
        <lane id=":20_3_1" index="1" speed="13.89" length="20.80" shape="2001.60,1189.60 2001.60,1210.40"/>
    </edge>
    <edge id=":20_5" function="internal">
        <lane id=":20_5_0" index="0" speed="9.26" length="5.01" shape="2001.60,1189.60 2000.89,1194.56"/>
    </edge>
    <edge id=":20_9" function="internal">
        <lane id=":20_9_0" index="0" speed="9.26" length="14.34" shape="2000.89,1194.56 2000.85,1194.85 1998.60,1198.60 1994.85,1200.85 1989.60,1201.60"/>
    </edge>
    <edge id=":20_6" function="internal">
        <lane id=":20_6_0" index="0" speed="6.51" length="9.03" shape="1989.60,1195.20 1992.05,1194.85 1993.80,1193.80 1994.85,1192.05 1995.20,1189.60"/>
        <lane id=":20_6_1" index="1" speed="8.00" length="14.19" shape="1989.60,1198.40 1993.45,1197.85 1996.20,1196.20 1997.85,1193.45 1998.40,1189.60"/>
    </edge>
    <edge id=":20_8" function="internal">
        <lane id=":20_8_0" index="0" speed="9.26" length="19.35" shape="1989.60,1198.40 1994.85,1199.15 1998.60,1201.40 2000.85,1205.15 2001.60,1210.40"/>
    </edge>
    <edge id=":257_0" function="internal">
        <lane id=":257_0_0" index="0" speed="13.89" length="20.80" shape="1795.20,2210.40 1795.20,2189.60"/>
        <lane id=":257_0_1" index="1" speed="13.89" length="20.80" shape="1798.40,2210.40 1798.40,2189.60"/>
    </edge>
    <edge id=":257_2" function="internal">
        <lane id=":257_2_0" index="0" speed="9.26" length="5.01" shape="1798.40,2210.40 1799.11,2205.44"/>
    </edge>
    <edge id=":257_9" function="internal">
        <lane id=":257_9_0" index="0" speed="9.26" length="14.34" shape="1799.11,2205.44 1799.15,2205.15 1801.40,2201.40 1805.15,2199.15 1810.40,2198.40"/>
    </edge>
    <edge id=":257_3" function="internal">
        <lane id=":257_3_0" index="0" speed="6.51" length="9.03" shape="1810.40,2204.80 1807.95,2205.15 1806.20,2206.20 1805.15,2207.95 1804.80,2210.40"/>
        <lane id=":257_3_1" index="1" speed="8.00" length="14.19" shape="1810.40,2201.60 1806.55,2202.15 1803.80,2203.80 1802.15,2206.55 1801.60,2210.40"/>
    </edge>
    <edge id=":257_5" function="internal">
        <lane id=":257_5_0" index="0" speed="9.26" length="19.35" shape="1810.40,2201.60 1805.15,2200.85 1801.40,2198.60 1799.15,2194.85 1798.40,2189.60"/>
    </edge>
    <edge id=":257_6" function="internal">
        <lane id=":257_6_0" index="0" speed="6.51" length="9.03" shape="1804.80,2189.60 1805.15,2192.05 1806.20,2193.80 1807.95,2194.85 1810.40,2195.20"/>
    </edge>
    <edge id=":257_7" function="internal">
        <lane id=":257_7_0" index="0" speed="13.89" length="20.80" shape="1804.80,2189.60 1804.80,2210.40"/>
        <lane id=":257_7_1" index="1" speed="13.89" length="20.80" shape="1801.60,2189.60 1801.60,2210.40"/>
    </edge>
    <edge id=":288_0" function="internal">
        <lane id=":288_0_0" index="0" speed="13.89" length="20.80" shape="1595.20,1410.40 1595.20,1389.60"/>
        <lane id=":288_0_1" index="1" speed="13.89" length="20.80" shape="1598.40,1410.40 1598.40,1389.60"/>
    </edge>
    <edge id=":288_2" function="internal">
        <lane id=":288_2_0" index="0" speed="9.26" length="5.01" shape="1598.40,1410.40 1599.11,1405.44"/>
    </edge>
    <edge id=":288_9" function="internal">
        <lane id=":288_9_0" index="0" speed="9.26" length="14.34" shape="1599.11,1405.44 1599.15,1405.15 1601.40,1401.40 1605.15,1399.15 1610.40,1398.40"/>
    </edge>
    <edge id=":288_3" function="internal">
        <lane id=":288_3_0" index="0" speed="6.51" length="9.03" shape="1610.40,1404.80 1607.95,1405.15 1606.20,1406.20 1605.15,1407.95 1604.80,1410.40"/>
        <lane id=":288_3_1" index="1" speed="8.00" length="14.19" shape="1610.40,1401.60 1606.55,1402.15 1603.80,1403.80 1602.15,1406.55 1601.60,1410.40"/>
    </edge>
    <edge id=":288_5" function="internal">
        <lane id=":288_5_0" index="0" speed="9.26" length="19.35" shape="1610.40,1401.60 1605.15,1400.85 1601.40,1398.60 1599.15,1394.85 1598.40,1389.60"/>
    </edge>
    <edge id=":288_6" function="internal">
        <lane id=":288_6_0" index="0" speed="6.51" length="9.03" shape="1604.80,1389.60 1605.15,1392.05 1606.20,1393.80 1607.95,1394.85 1610.40,1395.20"/>
    </edge>
    <edge id=":288_7" function="internal">
        <lane id=":288_7_0" index="0" speed="13.89" length="20.80" shape="1604.80,1389.60 1604.80,1410.40"/>
        <lane id=":288_7_1" index="1" speed="13.89" length="20.80" shape="1601.60,1389.60 1601.60,1410.40"/>
    </edge>
    <edge id=":294_0" function="internal">
        <lane id=":294_0_0" index="0" speed="6.51" length="9.03" shape="2395.20,2210.40 2394.85,2207.95 2393.80,2206.20 2392.05,2205.15 2389.60,2204.80"/>
    </edge>
    <edge id=":294_1" function="internal">
        <lane id=":294_1_0" index="0" speed="13.89" length="20.80" shape="2395.20,2210.40 2395.20,2189.60"/>
        <lane id=":294_1_1" index="1" speed="13.89" length="20.80" shape="2398.40,2210.40 2398.40,2189.60"/>
    </edge>
    <edge id=":294_3" function="internal">
        <lane id=":294_3_0" index="0" speed="13.89" length="20.80" shape="2404.80,2189.60 2404.80,2210.40"/>
        <lane id=":294_3_1" index="1" speed="13.89" length="20.80" shape="2401.60,2189.60 2401.60,2210.40"/>
    </edge>
    <edge id=":294_5" function="internal">
        <lane id=":294_5_0" index="0" speed="9.26" length="5.01" shape="2401.60,2189.60 2400.89,2194.56"/>
    </edge>
    <edge id=":294_9" function="internal">
        <lane id=":294_9_0" index="0" speed="9.26" length="14.34" shape="2400.89,2194.56 2400.85,2194.85 2398.60,2198.60 2394.85,2200.85 2389.60,2201.60"/>
    </edge>
    <edge id=":294_6" function="internal">
        <lane id=":294_6_0" index="0" speed="6.51" length="9.03" shape="2389.60,2195.20 2392.05,2194.85 2393.80,2193.80 2394.85,2192.05 2395.20,2189.60"/>
        <lane id=":294_6_1" index="1" speed="8.00" length="14.19" shape="2389.60,2198.40 2393.45,2197.85 2396.20,2196.20 2397.85,2193.45 2398.40,2189.60"/>
    </edge>
    <edge id=":294_8" function="internal">
        <lane id=":294_8_0" index="0" speed="9.26" length="19.35" shape="2389.60,2198.40 2394.85,2199.15 2398.60,2201.40 2400.85,2205.15 2401.60,2210.40"/>
    </edge>
    <edge id=":302_0" function="internal">
        <lane id=":302_0_0" index="0" speed="8.96" length="18.06" shape="2206.40,2004.80 2201.50,2004.10 2198.00,2002.00 2195.90,1998.50 2195.20,1993.60"/>
        <lane id=":302_0_1" index="1" speed="7.66" length="12.90" shape="2206.40,2001.60 2202.90,2001.10 2200.40,1999.60 2198.90,1997.10 2198.40,1993.60"/>
    </edge>
    <edge id=":302_2" function="internal">
        <lane id=":302_2_0" index="0" speed="3.90" length="2.58" shape="2204.80,1993.60 2204.90,1994.30 2205.20,1994.80 2205.70,1995.10 2206.40,1995.20"/>
        <lane id=":302_2_1" index="1" speed="6.08" length="7.74" shape="2201.60,1993.60 2201.90,1995.70 2202.80,1997.20 2204.30,1998.10 2206.40,1998.40"/>
    </edge>
    <edge id=":4_0" function="internal">
        <lane id=":4_0_0" index="0" speed="6.51" length="9.03" shape="2195.20,1810.40 2194.85,1807.95 2193.80,1806.20 2192.05,1805.15 2189.60,1804.80"/>
    </edge>
    <edge id=":4_1" function="internal">
        <lane id=":4_1_0" index="0" speed="13.89" length="20.80" shape="2195.20,1810.40 2195.20,1789.60"/>
        <lane id=":4_1_1" index="1" speed="13.89" length="20.80" shape="2198.40,1810.40 2198.40,1789.60"/>
    </edge>
    <edge id=":4_3" function="internal">
        <lane id=":4_3_0" index="0" speed="13.89" length="20.80" shape="2204.80,1789.60 2204.80,1810.40"/>
        <lane id=":4_3_1" index="1" speed="13.89" length="20.80" shape="2201.60,1789.60 2201.60,1810.40"/>
    </edge>
    <edge id=":4_5" function="internal">
        <lane id=":4_5_0" index="0" speed="9.26" length="5.01" shape="2201.60,1789.60 2200.89,1794.56"/>
    </edge>
    <edge id=":4_9" function="internal">
        <lane id=":4_9_0" index="0" speed="9.26" length="14.34" shape="2200.89,1794.56 2200.85,1794.85 2198.60,1798.60 2194.85,1800.85 2189.60,1801.60"/>
    </edge>
    <edge id=":4_6" function="internal">
        <lane id=":4_6_0" index="0" speed="6.51" length="9.03" shape="2189.60,1795.20 2192.05,1794.85 2193.80,1793.80 2194.85,1792.05 2195.20,1789.60"/>
        <lane id=":4_6_1" index="1" speed="8.00" length="14.19" shape="2189.60,1798.40 2193.45,1797.85 2196.20,1796.20 2197.85,1793.45 2198.40,1789.60"/>
    </edge>
    <edge id=":4_8" function="internal">
        <lane id=":4_8_0" index="0" speed="9.26" length="19.35" shape="2189.60,1798.40 2194.85,1799.15 2198.60,1801.40 2200.85,1805.15 2201.60,1810.40"/>
    </edge>
    <edge id=":42_0" function="internal">
        <lane id=":42_0_0" index="0" speed="13.89" length="20.80" shape="1795.20,1210.40 1795.20,1189.60"/>
        <lane id=":42_0_1" index="1" speed="13.89" length="20.80" shape="1798.40,1210.40 1798.40,1189.60"/>
    </edge>
    <edge id=":42_2" function="internal">
        <lane id=":42_2_0" index="0" speed="9.26" length="5.01" shape="1798.40,1210.40 1799.11,1205.44"/>
    </edge>
    <edge id=":42_9" function="internal">
        <lane id=":42_9_0" index="0" speed="9.26" length="14.34" shape="1799.11,1205.44 1799.15,1205.15 1801.40,1201.40 1805.15,1199.15 1810.40,1198.40"/>
    </edge>
    <edge id=":42_3" function="internal">
        <lane id=":42_3_0" index="0" speed="6.51" length="9.03" shape="1810.40,1204.80 1807.95,1205.15 1806.20,1206.20 1805.15,1207.95 1804.80,1210.40"/>
        <lane id=":42_3_1" index="1" speed="8.00" length="14.19" shape="1810.40,1201.60 1806.55,1202.15 1803.80,1203.80 1802.15,1206.55 1801.60,1210.40"/>
    </edge>
    <edge id=":42_5" function="internal">
        <lane id=":42_5_0" index="0" speed="9.26" length="19.35" shape="1810.40,1201.60 1805.15,1200.85 1801.40,1198.60 1799.15,1194.85 1798.40,1189.60"/>
    </edge>
    <edge id=":42_6" function="internal">
        <lane id=":42_6_0" index="0" speed="6.51" length="9.03" shape="1804.80,1189.60 1805.15,1192.05 1806.20,1193.80 1807.95,1194.85 1810.40,1195.20"/>
    </edge>
    <edge id=":42_7" function="internal">
        <lane id=":42_7_0" index="0" speed="13.89" length="20.80" shape="1804.80,1189.60 1804.80,1210.40"/>
        <lane id=":42_7_1" index="1" speed="13.89" length="20.80" shape="1801.60,1189.60 1801.60,1210.40"/>
    </edge>
    <edge id=":479_0" function="internal">
        <lane id=":479_0_0" index="0" speed="8.96" length="18.06" shape="2406.40,2604.80 2401.50,2604.10 2398.00,2602.00 2395.90,2598.50 2395.20,2593.60"/>
        <lane id=":479_0_1" index="1" speed="7.66" length="12.90" shape="2406.40,2601.60 2402.90,2601.10 2400.40,2599.60 2398.90,2597.10 2398.40,2593.60"/>
    </edge>
    <edge id=":479_2" function="internal">
        <lane id=":479_2_0" index="0" speed="3.90" length="2.58" shape="2404.80,2593.60 2404.90,2594.30 2405.20,2594.80 2405.70,2595.10 2406.40,2595.20"/>
        <lane id=":479_2_1" index="1" speed="6.08" length="7.74" shape="2401.60,2593.60 2401.90,2595.70 2402.80,2597.20 2404.30,2598.10 2406.40,2598.40"/>
    </edge>
    <edge id=":492_0" function="internal">
        <lane id=":492_0_0" index="0" speed="13.89" length="20.80" shape="1610.40,1604.80 1589.60,1604.80"/>
        <lane id=":492_0_1" index="1" speed="13.89" length="20.80" shape="1610.40,1601.60 1589.60,1601.60"/>
    </edge>
    <edge id=":492_2" function="internal">
        <lane id=":492_2_0" index="0" speed="9.26" length="5.01" shape="1610.40,1601.60 1605.44,1600.89"/>
    </edge>
    <edge id=":492_9" function="internal">
        <lane id=":492_9_0" index="0" speed="9.26" length="14.34" shape="1605.44,1600.89 1605.15,1600.85 1601.40,1598.60 1599.15,1594.85 1598.40,1589.60"/>
    </edge>
    <edge id=":492_3" function="internal">
        <lane id=":492_3_0" index="0" speed="6.51" length="9.03" shape="1604.80,1589.60 1605.15,1592.05 1606.20,1593.80 1607.95,1594.85 1610.40,1595.20"/>
        <lane id=":492_3_1" index="1" speed="8.00" length="14.19" shape="1601.60,1589.60 1602.15,1593.45 1603.80,1596.20 1606.55,1597.85 1610.40,1598.40"/>
    </edge>
    <edge id=":492_5" function="internal">
        <lane id=":492_5_0" index="0" speed="9.26" length="19.35" shape="1601.60,1589.60 1600.85,1594.85 1598.60,1598.60 1594.85,1600.85 1589.60,1601.60"/>
    </edge>
    <edge id=":492_6" function="internal">
        <lane id=":492_6_0" index="0" speed="6.51" length="9.03" shape="1589.60,1595.20 1592.05,1594.85 1593.80,1593.80 1594.85,1592.05 1595.20,1589.60"/>
    </edge>
    <edge id=":492_7" function="internal">
        <lane id=":492_7_0" index="0" speed="13.89" length="20.80" shape="1589.60,1595.20 1610.40,1595.20"/>
        <lane id=":492_7_1" index="1" speed="13.89" length="20.80" shape="1589.60,1598.40 1610.40,1598.40"/>
    </edge>
    <edge id=":502_0" function="internal">
        <lane id=":502_0_0" index="0" speed="6.51" length="9.03" shape="2395.20,2010.40 2394.85,2007.95 2393.80,2006.20 2392.05,2005.15 2389.60,2004.80"/>
        <lane id=":502_0_1" index="1" speed="8.00" length="14.19" shape="2398.40,2010.40 2397.85,2006.55 2396.20,2003.80 2393.45,2002.15 2389.60,2001.60"/>
    </edge>
    <edge id=":502_2" function="internal">
        <lane id=":502_2_0" index="0" speed="9.26" length="19.35" shape="2398.40,2010.40 2399.15,2005.15 2401.40,2001.40 2405.15,1999.15 2410.40,1998.40"/>
    </edge>
    <edge id=":502_3" function="internal">
        <lane id=":502_3_0" index="0" speed="6.51" length="9.03" shape="2410.40,2004.80 2407.95,2005.15 2406.20,2006.20 2405.15,2007.95 2404.80,2010.40"/>
    </edge>
    <edge id=":502_4" function="internal">
        <lane id=":502_4_0" index="0" speed="13.89" length="20.80" shape="2410.40,2004.80 2389.60,2004.80"/>
        <lane id=":502_4_1" index="1" speed="13.89" length="20.80" shape="2410.40,2001.60 2389.60,2001.60"/>
    </edge>
    <edge id=":502_6" function="internal">
        <lane id=":502_6_0" index="0" speed="13.89" length="20.80" shape="2389.60,1995.20 2410.40,1995.20"/>
        <lane id=":502_6_1" index="1" speed="13.89" length="20.80" shape="2389.60,1998.40 2410.40,1998.40"/>
    </edge>
    <edge id=":502_8" function="internal">
        <lane id=":502_8_0" index="0" speed="9.26" length="5.01" shape="2389.60,1998.40 2394.56,1999.11"/>
    </edge>
    <edge id=":502_9" function="internal">
        <lane id=":502_9_0" index="0" speed="9.26" length="14.34" shape="2394.56,1999.11 2394.85,1999.15 2398.60,2001.40 2400.85,2005.15 2401.60,2010.40"/>
    </edge>
    <edge id=":514_0" function="internal">
        <lane id=":514_0_0" index="0" speed="3.90" length="2.58" shape="1795.20,1606.40 1795.10,1605.70 1794.80,1605.20 1794.30,1604.90 1793.60,1604.80"/>
        <lane id=":514_0_1" index="1" speed="6.08" length="7.74" shape="1798.40,1606.40 1798.10,1604.30 1797.20,1602.80 1795.70,1601.90 1793.60,1601.60"/>
    </edge>
    <edge id=":514_2" function="internal">
        <lane id=":514_2_0" index="0" speed="8.96" length="18.06" shape="1793.60,1595.20 1798.50,1595.90 1802.00,1598.00 1804.10,1601.50 1804.80,1606.40"/>
        <lane id=":514_2_1" index="1" speed="7.66" length="12.90" shape="1793.60,1598.40 1797.10,1598.90 1799.60,1600.40 1801.10,1602.90 1801.60,1606.40"/>
    </edge>
    <edge id=":cluster_1101_1221_0" function="internal">