<?xml version="1.0" encoding="UTF-8"?>

<!-- generated on 2025-03-04 13:54:36 by Eclipse SUMO netedit Version 1.20.0
<configuration xmlns:xsi="http://www.w3.org/2001/XMLSchema-instance" xsi:noNamespaceSchemaLocation="http://sumo.dlr.de/xsd/neteditConfiguration.xsd">

    <input>
        <sumo-net-file value="/Users/rohitbokade/Desktop/random_subnetworks/random_subnetwork_5.net.xml"/>
    </input>

    <output>
        <output-file value="/Users/rohitbokade/Desktop/random_subnetworks/random_subnetwork_5.net.xml"/>
    </output>

    <processing>
        <geometry.min-radius.fix.railways value="false"/>
        <geometry.max-grade.fix value="false"/>
        <offset.disable-normalization value="true"/>
        <lefthand value="0"/>
    </processing>

    <junctions>
        <no-turnarounds value="true"/>
        <junctions.corner-detail value="5"/>
        <junctions.limit-turn-speed value="5.50"/>
        <rectangular-lane-cut value="0"/>
    </junctions>

    <pedestrian>
        <walkingareas value="0"/>
    </pedestrian>

</configuration>
-->

<net version="1.20" junctionCornerDetail="5" limitTurnSpeed="5.50" xmlns:xsi="http://www.w3.org/2001/XMLSchema-instance" xsi:noNamespaceSchemaLocation="http://sumo.dlr.de/xsd/net_file.xsd">

    <location netOffset="2000.00,1800.00" convBoundary="1400.00,1400.00,2400.00,2800.00" origBoundary="-2000.00,-1800.00,800.00,1200.00" projParameter="!"/>

    <edge id=":1_0" function="internal">
        <lane id=":1_0_0" index="0" speed="6.51" length="9.03" shape="1995.20,1810.40 1994.85,1807.95 1993.80,1806.20 1992.05,1805.15 1989.60,1804.80"/>
    </edge>
    <edge id=":1_1" function="internal">
        <lane id=":1_1_0" index="0" speed="13.89" length="20.80" shape="1995.20,1810.40 1995.20,1789.60"/>
        <lane id=":1_1_1" index="1" speed="13.89" length="20.80" shape="1998.40,1810.40 1998.40,1789.60"/>
    </edge>
    <edge id=":1_3" function="internal">
        <lane id=":1_3_0" index="0" speed="9.26" length="5.01" shape="1998.40,1810.40 1999.11,1805.44"/>
    </edge>
    <edge id=":1_4" function="internal">
        <lane id=":1_4_0" index="0" speed="3.65" length="1.44" shape="1998.40,1810.40 1999.20,1809.20"/>
    </edge>
    <edge id=":1_20" function="internal">
        <lane id=":1_20_0" index="0" speed="9.26" length="14.34" shape="1999.11,1805.44 1999.15,1805.15 2001.40,1801.40 2005.15,1799.15 2010.40,1798.40"/>
    </edge>
    <edge id=":1_21" function="internal">
        <lane id=":1_21_0" index="0" speed="3.65" length="3.23" shape="1999.20,1809.20 2000.00,1808.80 2000.80,1809.20 2001.60,1810.40"/>
    </edge>
    <edge id=":1_5" function="internal">
        <lane id=":1_5_0" index="0" speed="6.51" length="9.03" shape="2010.40,1804.80 2007.95,1805.15 2006.20,1806.20 2005.15,1807.95 2004.80,1810.40"/>
    </edge>
    <edge id=":1_6" function="internal">
        <lane id=":1_6_0" index="0" speed="13.89" length="20.80" shape="2010.40,1804.80 1989.60,1804.80"/>
        <lane id=":1_6_1" index="1" speed="13.89" length="20.80" shape="2010.40,1801.60 1989.60,1801.60"/>
    </edge>
    <edge id=":1_8" function="internal">
        <lane id=":1_8_0" index="0" speed="9.26" length="5.01" shape="2010.40,1801.60 2005.44,1800.89"/>
    </edge>
    <edge id=":1_9" function="internal">
        <lane id=":1_9_0" index="0" speed="3.65" length="1.44" shape="2010.40,1801.60 2009.20,1800.80"/>
    </edge>
    <edge id=":1_22" function="internal">
        <lane id=":1_22_0" index="0" speed="9.26" length="14.34" shape="2005.44,1800.89 2005.15,1800.85 2001.40,1798.60 1999.15,1794.85 1998.40,1789.60"/>
    </edge>
    <edge id=":1_23" function="internal">
        <lane id=":1_23_0" index="0" speed="3.65" length="3.23" shape="2009.20,1800.80 2008.80,1800.00 2009.20,1799.20 2010.40,1798.40"/>
    </edge>
    <edge id=":1_10" function="internal">
        <lane id=":1_10_0" index="0" speed="6.51" length="9.03" shape="2004.80,1789.60 2005.15,1792.05 2006.20,1793.80 2007.95,1794.85 2010.40,1795.20"/>
    </edge>
    <edge id=":1_11" function="internal">
        <lane id=":1_11_0" index="0" speed="13.89" length="20.80" shape="2004.80,1789.60 2004.80,1810.40"/>
        <lane id=":1_11_1" index="1" speed="13.89" length="20.80" shape="2001.60,1789.60 2001.60,1810.40"/>
    </edge>
    <edge id=":1_13" function="internal">
        <lane id=":1_13_0" index="0" speed="9.26" length="5.01" shape="2001.60,1789.60 2000.89,1794.56"/>
    </edge>
    <edge id=":1_14" function="internal">
        <lane id=":1_14_0" index="0" speed="3.65" length="1.44" shape="2001.60,1789.60 2000.80,1790.80"/>
    </edge>
    <edge id=":1_24" function="internal">
        <lane id=":1_24_0" index="0" speed="9.26" length="14.34" shape="2000.89,1794.56 2000.85,1794.85 1998.60,1798.60 1994.85,1800.85 1989.60,1801.60"/>
    </edge>
    <edge id=":1_25" function="internal">
        <lane id=":1_25_0" index="0" speed="3.65" length="3.23" shape="2000.80,1790.80 2000.00,1791.20 1999.20,1790.80 1998.40,1789.60"/>
    </edge>
    <edge id=":1_15" function="internal">
        <lane id=":1_15_0" index="0" speed="6.51" length="9.03" shape="1989.60,1795.20 1992.05,1794.85 1993.80,1793.80 1994.85,1792.05 1995.20,1789.60"/>
    </edge>
    <edge id=":1_16" function="internal">
        <lane id=":1_16_0" index="0" speed="13.89" length="20.80" shape="1989.60,1795.20 2010.40,1795.20"/>
        <lane id=":1_16_1" index="1" speed="13.89" length="20.80" shape="1989.60,1798.40 2010.40,1798.40"/>
    </edge>
    <edge id=":1_18" function="internal">
        <lane id=":1_18_0" index="0" speed="9.26" length="5.01" shape="1989.60,1798.40 1994.56,1799.11"/>
    </edge>
    <edge id=":1_19" function="internal">
        <lane id=":1_19_0" index="0" speed="3.65" length="1.44" shape="1989.60,1798.40 1990.80,1799.20"/>
    </edge>
    <edge id=":1_26" function="internal">
        <lane id=":1_26_0" index="0" speed="9.26" length="14.34" shape="1994.56,1799.11 1994.85,1799.15 1998.60,1801.40 2000.85,1805.15 2001.60,1810.40"/>
    </edge>
    <edge id=":1_27" function="internal">
        <lane id=":1_27_0" index="0" speed="3.65" length="3.23" shape="1990.80,1799.20 1991.20,1800.00 1990.80,1800.80 1989.60,1801.60"/>
    </edge>
    <edge id=":10_0" function="internal">
        <lane id=":10_0_0" index="0" speed="13.89" length="20.80" shape="1795.20,1810.40 1795.20,1789.60"/>
        <lane id=":10_0_1" index="1" speed="13.89" length="20.80" shape="1798.40,1810.40 1798.40,1789.60"/>
    </edge>
    <edge id=":10_2" function="internal">
        <lane id=":10_2_0" index="0" speed="9.26" length="5.01" shape="1798.40,1810.40 1799.11,1805.44"/>
    </edge>
    <edge id=":10_3" function="internal">
        <lane id=":10_3_0" index="0" speed="3.65" length="1.44" shape="1798.40,1810.40 1799.20,1809.20"/>
    </edge>
    <edge id=":10_12" function="internal">
        <lane id=":10_12_0" index="0" speed="9.26" length="14.34" shape="1799.11,1805.44 1799.15,1805.15 1801.40,1801.40 1805.15,1799.15 1810.40,1798.40"/>
    </edge>
    <edge id=":10_13" function="internal">
        <lane id=":10_13_0" index="0" speed="3.65" length="3.23" shape="1799.20,1809.20 1800.00,1808.80 1800.80,1809.20 1801.60,1810.40"/>
    </edge>
    <edge id=":10_4" function="internal">
        <lane id=":10_4_0" index="0" speed="6.51" length="9.03" shape="1810.40,1804.80 1807.95,1805.15 1806.20,1806.20 1805.15,1807.95 1804.80,1810.40"/>
        <lane id=":10_4_1" index="1" speed="8.00" length="14.19" shape="1810.40,1801.60 1806.55,1802.15 1803.80,1803.80 1802.15,1806.55 1801.60,1810.40"/>
    </edge>
    <edge id=":10_6" function="internal">
        <lane id=":10_6_0" index="0" speed="9.26" length="19.35" shape="1810.40,1801.60 1805.15,1800.85 1801.40,1798.60 1799.15,1794.85 1798.40,1789.60"/>
    </edge>
    <edge id=":10_7" function="internal">
        <lane id=":10_7_0" index="0" speed="3.65" length="2.34" shape="1810.40,1801.60 1809.20,1800.80 1808.80,1800.00"/>
    </edge>
    <edge id=":10_14" function="internal">
        <lane id=":10_14_0" index="0" speed="3.65" length="2.34" shape="1808.80,1800.00 1809.20,1799.20 1810.40,1798.40"/>
    </edge>
    <edge id=":10_8" function="internal">
        <lane id=":10_8_0" index="0" speed="6.51" length="9.03" shape="1804.80,1789.60 1805.15,1792.05 1806.20,1793.80 1807.95,1794.85 1810.40,1795.20"/>
    </edge>
    <edge id=":10_9" function="internal">
        <lane id=":10_9_0" index="0" speed="13.89" length="20.80" shape="1804.80,1789.60 1804.80,1810.40"/>
        <lane id=":10_9_1" index="1" speed="13.89" length="20.80" shape="1801.60,1789.60 1801.60,1810.40"/>
    </edge>
    <edge id=":10_11" function="internal">
        <lane id=":10_11_0" index="0" speed="3.65" length="1.44" shape="1801.60,1789.60 1800.80,1790.80"/>
    </edge>
    <edge id=":10_15" function="internal">
        <lane id=":10_15_0" index="0" speed="3.65" length="3.23" shape="1800.80,1790.80 1800.00,1791.20 1799.20,1790.80 1798.40,1789.60"/>
    </edge>
    <edge id=":14_0" function="internal">
        <lane id=":14_0_0" index="0" speed="13.89" length="20.80" shape="2010.40,2204.80 1989.60,2204.80"/>
        <lane id=":14_0_1" index="1" speed="13.89" length="20.80" shape="2010.40,2201.60 1989.60,2201.60"/>
    </edge>
    <edge id=":14_2" function="internal">
        <lane id=":14_2_0" index="0" speed="9.26" length="5.01" shape="2010.40,2201.60 2005.44,2200.89"/>
    </edge>
    <edge id=":14_3" function="internal">
        <lane id=":14_3_0" index="0" speed="3.65" length="1.44" shape="2010.40,2201.60 2009.20,2200.80"/>
    </edge>
    <edge id=":14_12" function="internal">
        <lane id=":14_12_0" index="0" speed="9.26" length="14.34" shape="2005.44,2200.89 2005.15,2200.85 2001.40,2198.60 1999.15,2194.85 1998.40,2189.60"/>
    </edge>
    <edge id=":14_13" function="internal">
        <lane id=":14_13_0" index="0" speed="3.65" length="3.23" shape="2009.20,2200.80 2008.80,2200.00 2009.20,2199.20 2010.40,2198.40"/>
    </edge>
    <edge id=":14_4" function="internal">
        <lane id=":14_4_0" index="0" speed="6.51" length="9.03" shape="2004.80,2189.60 2005.15,2192.05 2006.20,2193.80 2007.95,2194.85 2010.40,2195.20"/>
        <lane id=":14_4_1" index="1" speed="8.00" length="14.19" shape="2001.60,2189.60 2002.15,2193.45 2003.80,2196.20 2006.55,2197.85 2010.40,2198.40"/>
    </edge>
    <edge id=":14_6" function="internal">
        <lane id=":14_6_0" index="0" speed="9.26" length="19.35" shape="2001.60,2189.60 2000.85,2194.85 1998.60,2198.60 1994.85,2200.85 1989.60,2201.60"/>
    </edge>
    <edge id=":14_7" function="internal">
        <lane id=":14_7_0" index="0" speed="3.65" length="2.34" shape="2001.60,2189.60 2000.80,2190.80 2000.00,2191.20"/>
    </edge>
    <edge id=":14_14" function="internal">
        <lane id=":14_14_0" index="0" speed="3.65" length="2.34" shape="2000.00,2191.20 1999.20,2190.80 1998.40,2189.60"/>
    </edge>
    <edge id=":14_8" function="internal">
        <lane id=":14_8_0" index="0" speed="6.51" length="9.03" shape="1989.60,2195.20 1992.05,2194.85 1993.80,2193.80 1994.85,2192.05 1995.20,2189.60"/>
    </edge>
    <edge id=":14_9" function="internal">
        <lane id=":14_9_0" index="0" speed="13.89" length="20.80" shape="1989.60,2195.20 2010.40,2195.20"/>
        <lane id=":14_9_1" index="1" speed="13.89" length="20.80" shape="1989.60,2198.40 2010.40,2198.40"/>
    </edge>
    <edge id=":14_11" function="internal">
        <lane id=":14_11_0" index="0" speed="3.65" length="1.44" shape="1989.60,2198.40 1990.80,2199.20"/>
    </edge>
    <edge id=":14_15" function="internal">
        <lane id=":14_15_0" index="0" speed="3.65" length="3.23" shape="1990.80,2199.20 1991.20,2200.00 1990.80,2200.80 1989.60,2201.60"/>
    </edge>
    <edge id=":2_0" function="internal">
        <lane id=":2_0_0" index="0" speed="3.65" length="4.67" shape="1998.40,1400.00 1999.20,1398.80 2000.00,1398.40 2000.80,1398.80 2001.60,1400.00"/>
    </edge>
    <edge id=":257_0" function="internal">
        <lane id=":257_0_0" index="0" speed="13.89" length="20.80" shape="1795.20,2210.40 1795.20,2189.60"/>
        <lane id=":257_0_1" index="1" speed="13.89" length="20.80" shape="1798.40,2210.40 1798.40,2189.60"/>
    </edge>
    <edge id=":257_2" function="internal">
        <lane id=":257_2_0" index="0" speed="9.26" length="5.01" shape="1798.40,2210.40 1799.11,2205.44"/>
    </edge>
    <edge id=":257_3" function="internal">
        <lane id=":257_3_0" index="0" speed="3.65" length="1.44" shape="1798.40,2210.40 1799.20,2209.20"/>
    </edge>
    <edge id=":257_12" function="internal">
        <lane id=":257_12_0" index="0" speed="9.26" length="14.34" shape="1799.11,2205.44 1799.15,2205.15 1801.40,2201.40 1805.15,2199.15 1810.40,2198.40"/>
    </edge>
    <edge id=":257_13" function="internal">
        <lane id=":257_13_0" index="0" speed="3.65" length="3.23" shape="1799.20,2209.20 1800.00,2208.80 1800.80,2209.20 1801.60,2210.40"/>
    </edge>
    <edge id=":257_4" function="internal">
        <lane id=":257_4_0" index="0" speed="6.51" length="9.03" shape="1810.40,2204.80 1807.95,2205.15 1806.20,2206.20 1805.15,2207.95 1804.80,2210.40"/>
        <lane id=":257_4_1" index="1" speed="8.00" length="14.19" shape="1810.40,2201.60 1806.55,2202.15 1803.80,2203.80 1802.15,2206.55 1801.60,2210.40"/>
    </edge>
    <edge id=":257_6" function="internal">
        <lane id=":257_6_0" index="0" speed="9.26" length="19.35" shape="1810.40,2201.60 1805.15,2200.85 1801.40,2198.60 1799.15,2194.85 1798.40,2189.60"/>
    </edge>
    <edge id=":257_7" function="internal">
        <lane id=":257_7_0" index="0" speed="3.65" length="2.34" shape="1810.40,2201.60 1809.20,2200.80 1808.80,2200.00"/>
    </edge>
    <edge id=":257_14" function="internal">
        <lane id=":257_14_0" index="0" speed="3.65" length="2.34" shape="1808.80,2200.00 1809.20,2199.20 1810.40,2198.40"/>
    </edge>
    <edge id=":257_8" function="internal">
        <lane id=":257_8_0" index="0" speed="6.51" length="9.03" shape="1804.80,2189.60 1805.15,2192.05 1806.20,2193.80 1807.95,2194.85 1810.40,2195.20"/>
    </edge>
    <edge id=":257_9" function="internal">
        <lane id=":257_9_0" index="0" speed="13.89" length="20.80" shape="1804.80,2189.60 1804.80,2210.40"/>
        <lane id=":257_9_1" index="1" speed="13.89" length="20.80" shape="1801.60,2189.60 1801.60,2210.40"/>
    </edge>
    <edge id=":257_11" function="internal">
        <lane id=":257_11_0" index="0" speed="3.65" length="1.44" shape="1801.60,2189.60 1800.80,2190.80"/>
    </edge>
    <edge id=":257_15" function="internal">
        <lane id=":257_15_0" index="0" speed="3.65" length="3.23" shape="1800.80,2190.80 1800.00,2191.20 1799.20,2190.80 1798.40,2189.60"/>
    </edge>
    <edge id=":269_0" function="internal">
        <lane id=":269_0_0" index="0" speed="6.51" length="9.03" shape="1795.20,2410.40 1794.85,2407.95 1793.80,2406.20 1792.05,2405.15 1789.60,2404.80"/>
    </edge>
    <edge id=":269_1" function="internal">
        <lane id=":269_1_0" index="0" speed="13.89" length="20.80" shape="1795.20,2410.40 1795.20,2389.60"/>
        <lane id=":269_1_1" index="1" speed="13.89" length="20.80" shape="1798.40,2410.40 1798.40,2389.60"/>
    </edge>
    <edge id=":269_3" function="internal">
        <lane id=":269_3_0" index="0" speed="9.26" length="5.01" shape="1798.40,2410.40 1799.11,2405.44"/>
    </edge>
    <edge id=":269_4" function="internal">
        <lane id=":269_4_0" index="0" speed="3.65" length="1.44" shape="1798.40,2410.40 1799.20,2409.20"/>
    </edge>
    <edge id=":269_20" function="internal">
        <lane id=":269_20_0" index="0" speed="9.26" length="14.34" shape="1799.11,2405.44 1799.15,2405.15 1801.40,2401.40 1805.15,2399.15 1810.40,2398.40"/>
    </edge>
    <edge id=":269_21" function="internal">
        <lane id=":269_21_0" index="0" speed="3.65" length="3.23" shape="1799.20,2409.20 1800.00,2408.80 1800.80,2409.20 1801.60,2410.40"/>
    </edge>
    <edge id=":269_5" function="internal">
        <lane id=":269_5_0" index="0" speed="6.51" length="9.03" shape="1810.40,2404.80 1807.95,2405.15 1806.20,2406.20 1805.15,2407.95 1804.80,2410.40"/>
    </edge>
    <edge id=":269_6" function="internal">
        <lane id=":269_6_0" index="0" speed="13.89" length="20.80" shape="1810.40,2404.80 1789.60,2404.80"/>
        <lane id=":269_6_1" index="1" speed="13.89" length="20.80" shape="1810.40,2401.60 1789.60,2401.60"/>
    </edge>
    <edge id=":269_8" function="internal">
        <lane id=":269_8_0" index="0" speed="9.26" length="5.01" shape="1810.40,2401.60 1805.44,2400.89"/>
    </edge>
    <edge id=":269_9" function="internal">
        <lane id=":269_9_0" index="0" speed="3.65" length="1.44" shape="1810.40,2401.60 1809.20,2400.80"/>
    </edge>
    <edge id=":269_22" function="internal">
        <lane id=":269_22_0" index="0" speed="9.26" length="14.34" shape="1805.44,2400.89 1805.15,2400.85 1801.40,2398.60 1799.15,2394.85 1798.40,2389.60"/>
    </edge>
    <edge id=":269_23" function="internal">
        <lane id=":269_23_0" index="0" speed="3.65" length="3.23" shape="1809.20,2400.80 1808.80,2400.00 1809.20,2399.20 1810.40,2398.40"/>
    </edge>
    <edge id=":269_10" function="internal">
        <lane id=":269_10_0" index="0" speed="6.51" length="9.03" shape="1804.80,2389.60 1805.15,2392.05 1806.20,2393.80 1807.95,2394.85 1810.40,2395.20"/>
    </edge>
    <edge id=":269_11" function="internal">
        <lane id=":269_11_0" index="0" speed="13.89" length="20.80" shape="1804.80,2389.60 1804.80,2410.40"/>
        <lane id=":269_11_1" index="1" speed="13.89" length="20.80" shape="1801.60,2389.60 1801.60,2410.40"/>
    </edge>
    <edge id=":269_13" function="internal">
        <lane id=":269_13_0" index="0" speed="9.26" length="5.01" shape="1801.60,2389.60 1800.89,2394.56"/>
    </edge>
    <edge id=":269_14" function="internal">
        <lane id=":269_14_0" index="0" speed="3.65" length="1.44" shape="1801.60,2389.60 1800.80,2390.80"/>
    </edge>
    <edge id=":269_24" function="internal">
        <lane id=":269_24_0" index="0" speed="9.26" length="14.34" shape="1800.89,2394.56 1800.85,2394.85 1798.60,2398.60 1794.85,2400.85 1789.60,2401.60"/>
    </edge>
    <edge id=":269_25" function="internal">
        <lane id=":269_25_0" index="0" speed="3.65" length="3.23" shape="1800.80,2390.80 1800.00,2391.20 1799.20,2390.80 1798.40,2389.60"/>
    </edge>
    <edge id=":269_15" function="internal">
        <lane id=":269_15_0" index="0" speed="6.51" length="9.03" shape="1789.60,2395.20 1792.05,2394.85 1793.80,2393.80 1794.85,2392.05 1795.20,2389.60"/>
    </edge>
    <edge id=":269_16" function="internal">
        <lane id=":269_16_0" index="0" speed="13.89" length="20.80" shape="1789.60,2395.20 1810.40,2395.20"/>
        <lane id=":269_16_1" index="1" speed="13.89" length="20.80" shape="1789.60,2398.40 1810.40,2398.40"/>
    </edge>
    <edge id=":269_18" function="internal">
        <lane id=":269_18_0" index="0" speed="9.26" length="5.01" shape="1789.60,2398.40 1794.56,2399.11"/>
    </edge>
    <edge id=":269_19" function="internal">
        <lane id=":269_19_0" index="0" speed="3.65" length="1.44" shape="1789.60,2398.40 1790.80,2399.20"/>
    </edge>
    <edge id=":269_26" function="internal">
        <lane id=":269_26_0" index="0" speed="9.26" length="14.34" shape="1794.56,2399.11 1794.85,2399.15 1798.60,2401.40 1800.85,2405.15 1801.60,2410.40"/>
    </edge>
    <edge id=":269_27" function="internal">
        <lane id=":269_27_0" index="0" speed="3.65" length="3.23" shape="1790.80,2399.20 1791.20,2400.00 1790.80,2400.80 1789.60,2401.60"/>
    </edge>
    <edge id=":294_0" function="internal">
        <lane id=":294_0_0" index="0" speed="3.65" length="4.67" shape="2400.00,2198.40 2401.20,2199.20 2401.60,2200.00 2401.20,2200.80 2400.00,2201.60"/>
    </edge>
    <edge id=":306_0" function="internal">
        <lane id=":306_0_0" index="0" speed="3.65" length="4.67" shape="1400.00,2401.60 1398.80,2400.80 1398.40,2400.00 1398.80,2399.20 1400.00,2398.40"/>
    </edge>
    <edge id=":314_0" function="internal">
        <lane id=":314_0_0" index="0" speed="3.65" length="4.67" shape="2000.00,2398.40 2001.20,2399.20 2001.60,2400.00 2001.20,2400.80 2000.00,2401.60"/>
    </edge>
    <edge id=":4_0" function="internal">
        <lane id=":4_0_0" index="0" speed="3.65" length="4.67" shape="2200.00,1798.40 2201.20,1799.20 2201.60,1800.00 2201.20,1800.80 2200.00,1801.60"/>
    </edge>

    <edge id="-11" from="10" to="1" priority="-1">
        <lane id="-11_0" index="0" speed="13.89" length="179.20" shape="1810.40,1795.20 1989.60,1795.20"/>
        <lane id="-11_1" index="1" speed="13.89" length="179.20" shape="1810.40,1798.40 1989.60,1798.40"/>
    </edge>
    <edge id="-15" from="14" to="1" priority="-1">
        <lane id="-15_0" index="0" speed="13.89" length="379.20" shape="1995.20,2189.60 1995.20,1810.40"/>
        <lane id="-15_1" index="1" speed="13.89" length="379.20" shape="1998.40,2189.60 1998.40,1810.40"/>
    </edge>
    <edge id="-258" from="257" to="10" priority="-1">
        <lane id="-258_0" index="0" speed="13.89" length="379.20" shape="1795.20,2189.60 1795.20,1810.40"/>
        <lane id="-258_1" index="1" speed="13.89" length="379.20" shape="1798.40,2189.60 1798.40,1810.40"/>
    </edge>
    <edge id="-266" from="14" to="257" priority="-1">
        <lane id="-266_0" index="0" speed="13.89" length="179.20" shape="1989.60,2204.80 1810.40,2204.80"/>
        <lane id="-266_1" index="1" speed="13.89" length="179.20" shape="1989.60,2201.60 1810.40,2201.60"/>
    </edge>
    <edge id="-270" from="269" to="257" priority="-1">
        <lane id="-270_0" index="0" speed="13.89" length="179.20" shape="1795.20,2389.60 1795.20,2210.40"/>
        <lane id="-270_1" index="1" speed="13.89" length="179.20" shape="1798.40,2389.60 1798.40,2210.40"/>
    </edge>
    <edge id="-295" from="294" to="14" priority="-1">
        <lane id="-295_0" index="0" speed="13.89" length="389.60" shape="2400.00,2204.80 2010.40,2204.80"/>
        <lane id="-295_1" index="1" speed="13.89" length="389.60" shape="2400.00,2201.60 2010.40,2201.60"/>
    </edge>
    <edge id="-3" from="2" to="1" priority="-1">
        <lane id="-3_0" index="0" speed="13.89" length="389.60" shape="2004.80,1400.00 2004.80,1789.60"/>
        <lane id="-3_1" index="1" speed="13.89" length="389.60" shape="2001.60,1400.00 2001.60,1789.60"/>
    </edge>
    <edge id="-305" from="304" to="269" priority="-1">
        <lane id="-305_0" index="0" speed="13.89" length="389.60" shape="1795.20,2800.00 1795.20,2410.40"/>
        <lane id="-305_1" index="1" speed="13.89" length="389.60" shape="1798.40,2800.00 1798.40,2410.40"/>
    </edge>
    <edge id="-307" from="306" to="269" priority="-1">
        <lane id="-307_0" index="0" speed="13.89" length="389.60" shape="1400.00,2395.20 1789.60,2395.20"/>
        <lane id="-307_1" index="1" speed="13.89" length="389.60" shape="1400.00,2398.40 1789.60,2398.40"/>
    </edge>
    <edge id="-315" from="314" to="269" priority="-1">
        <lane id="-315_0" index="0" speed="13.89" length="189.60" shape="2000.00,2404.80 1810.40,2404.80"/>
        <lane id="-315_1" index="1" speed="13.89" length="189.60" shape="2000.00,2401.60 1810.40,2401.60"/>
    </edge>
    <edge id="-5" from="4" to="1" priority="-1">
        <lane id="-5_0" index="0" speed="13.89" length="189.60" shape="2200.00,1804.80 2010.40,1804.80"/>
        <lane id="-5_1" index="1" speed="13.89" length="189.60" shape="2200.00,1801.60 2010.40,1801.60"/>
    </edge>
    <edge id="-515" from="514" to="10" priority="-1">
        <lane id="-515_0" index="0" speed="13.89" length="189.60" shape="1804.80,1600.00 1804.80,1789.60"/>
        <lane id="-515_1" index="1" speed="13.89" length="189.60" shape="1801.60,1600.00 1801.60,1789.60"/>
    </edge>
    <edge id="11" from="1" to="10" priority="-1">
        <lane id="11_0" index="0" speed="13.89" length="179.20" shape="1989.60,1804.80 1810.40,1804.80"/>
        <lane id="11_1" index="1" speed="13.89" length="179.20" shape="1989.60,1801.60 1810.40,1801.60"/>
    </edge>
    <edge id="15" from="1" to="14" priority="-1">
        <lane id="15_0" index="0" speed="13.89" length="379.20" shape="2004.80,1810.40 2004.80,2189.60"/>
        <lane id="15_1" index="1" speed="13.89" length="379.20" shape="2001.60,1810.40 2001.60,2189.60"/>
    </edge>
    <edge id="258" from="10" to="257" priority="-1">
        <lane id="258_0" index="0" speed="13.89" length="379.20" shape="1804.80,1810.40 1804.80,2189.60"/>
        <lane id="258_1" index="1" speed="13.89" length="379.20" shape="1801.60,1810.40 1801.60,2189.60"/>
    </edge>
    <edge id="266" from="257" to="14" priority="-1">
        <lane id="266_0" index="0" speed="13.89" length="179.20" shape="1810.40,2195.20 1989.60,2195.20"/>
        <lane id="266_1" index="1" speed="13.89" length="179.20" shape="1810.40,2198.40 1989.60,2198.40"/>
    </edge>
    <edge id="270" from="257" to="269" priority="-1">
        <lane id="270_0" index="0" speed="13.89" length="179.20" shape="1804.80,2210.40 1804.80,2389.60"/>
        <lane id="270_1" index="1" speed="13.89" length="179.20" shape="1801.60,2210.40 1801.60,2389.60"/>
    </edge>
    <edge id="295" from="14" to="294" priority="-1">
        <lane id="295_0" index="0" speed="13.89" length="389.60" shape="2010.40,2195.20 2400.00,2195.20"/>
        <lane id="295_1" index="1" speed="13.89" length="389.60" shape="2010.40,2198.40 2400.00,2198.40"/>
    </edge>
    <edge id="3" from="1" to="2" priority="-1">
        <lane id="3_0" index="0" speed="13.89" length="389.60" shape="1995.20,1789.60 1995.20,1400.00"/>
        <lane id="3_1" index="1" speed="13.89" length="389.60" shape="1998.40,1789.60 1998.40,1400.00"/>
    </edge>
    <edge id="305" from="269" to="304" priority="-1">
        <lane id="305_0" index="0" speed="13.89" length="389.60" shape="1804.80,2410.40 1804.80,2800.00"/>
        <lane id="305_1" index="1" speed="13.89" length="389.60" shape="1801.60,2410.40 1801.60,2800.00"/>
    </edge>
    <edge id="307" from="269" to="306" priority="-1">
        <lane id="307_0" index="0" speed="13.89" length="389.60" shape="1789.60,2404.80 1400.00,2404.80"/>
        <lane id="307_1" index="1" speed="13.89" length="389.60" shape="1789.60,2401.60 1400.00,2401.60"/>
    </edge>
    <edge id="315" from="269" to="314" priority="-1">
        <lane id="315_0" index="0" speed="13.89" length="189.60" shape="1810.40,2395.20 2000.00,2395.20"/>
        <lane id="315_1" index="1" speed="13.89" length="189.60" shape="1810.40,2398.40 2000.00,2398.40"/>
    </edge>
    <edge id="5" from="1" to="4" priority="-1">
        <lane id="5_0" index="0" speed="13.89" length="189.60" shape="2010.40,1795.20 2200.00,1795.20"/>
        <lane id="5_1" index="1" speed="13.89" length="189.60" shape="2010.40,1798.40 2200.00,1798.40"/>
    </edge>
    <edge id="515" from="10" to="514" priority="-1">
        <lane id="515_0" index="0" speed="13.89" length="189.60" shape="1795.20,1789.60 1795.20,1600.00"/>
        <lane id="515_1" index="1" speed="13.89" length="189.60" shape="1798.40,1789.60 1798.40,1600.00"/>
    </edge>

    <tlLogic id="1" type="static" programID="0" offset="0">
        <phase duration="42" state="GGGggrrrrrGGGggrrrrr"/>
        <phase duration="3"  state="yyyyyrrrrryyyyyrrrrr"/>
        <phase duration="42" state="rrrrrGGGggrrrrrGGGgg"/>
        <phase duration="3"  state="rrrrryyyyyrrrrryyyyy"/>
    </tlLogic>
    <tlLogic id="10" type="static" programID="0" offset="0">
        <phase duration="42" state="GGggrrrrGGGg"/>
        <phase duration="3"  state="yyyyrrrrGyyy"/>
        <phase duration="42" state="rrrrGGGgGrrr"/>
        <phase duration="3"  state="rrrryyyyGrrr"/>
    </tlLogic>
    <tlLogic id="14" type="static" programID="0" offset="0">
        <phase duration="42" state="GGggrrrrGGGg"/>
        <phase duration="3"  state="yyyyrrrrGyyy"/>
        <phase duration="42" state="rrrrGGGgGrrr"/>
        <phase duration="3"  state="rrrryyyyGrrr"/>
    </tlLogic>
    <tlLogic id="257" type="static" programID="0" offset="0">
        <phase duration="42" state="GGggrrrrGGGg"/>
        <phase duration="3"  state="yyyyrrrrGyyy"/>
        <phase duration="42" state="rrrrGGGgGrrr"/>
        <phase duration="3"  state="rrrryyyyGrrr"/>
    </tlLogic>
    <tlLogic id="269" type="static" programID="0" offset="0">
        <phase duration="42" state="GGGggrrrrrGGGggrrrrr"/>
        <phase duration="3"  state="yyyyyrrrrryyyyyrrrrr"/>
        <phase duration="42" state="rrrrrGGGggrrrrrGGGgg"/>
        <phase duration="3"  state="rrrrryyyyyrrrrryyyyy"/>
    </tlLogic>

    <junction id="1" type="traffic_light" x="2000.00" y="1800.00" incLanes="-15_0 -15_1 -5_0 -5_1 -3_0 -3_1 -11_0 -11_1" intLanes=":1_0_0 :1_1_0 :1_1_1 :1_20_0 :1_21_0 :1_5_0 :1_6_0 :1_6_1 :1_22_0 :1_23_0 :1_10_0 :1_11_0 :1_11_1 :1_24_0 :1_25_0 :1_15_0 :1_16_0 :1_16_1 :1_26_0 :1_27_0" shape="1993.60,1810.40 2006.40,1810.40 2006.84,1808.18 2007.40,1807.40 2008.18,1806.84 2009.18,1806.51 2010.40,1806.40 2010.40,1793.60 2008.18,1793.16 2007.40,1792.60 2006.84,1791.82 2006.51,1790.82 2006.40,1789.60 1993.60,1789.60 1993.16,1791.82 1992.60,1792.60 1991.82,1793.16 1990.82,1793.49 1989.60,1793.60 1989.60,1806.40 1991.82,1806.84 1992.60,1807.40 1993.16,1808.18 1993.49,1809.18">
        <request index="0"  response="00000000000000000000" foes="00000000000011000000" cont="0"/>
        <request index="1"  response="01000000000100000000" foes="01111110000111000000" cont="0"/>
        <request index="2"  response="01000000000100000000" foes="01111110000111000000" cont="0"/>
        <request index="3"  response="01000001100100000000" foes="01110001101111000000" cont="1"/>
        <request index="4"  response="01000001100000000000" foes="01000001100000000000" cont="1"/>
        <request index="5"  response="00000001100000000000" foes="00000001100000000000" cont="0"/>
        <request index="6"  response="00000011100000001111" foes="11000011100000001111" cont="0"/>