<?xml version="1.0" encoding="UTF-8"?>

<!-- generated on 2025-03-09 19:55:41.273117 by randomTrips.py v1_19_0+1770-8bb5c24c187
<configuration>
    <net-file value="random_subnetwork_3.net.xml"/>
    <output-trip-file value="random_subnetwork_3_light.trips.xml"/>
    <fringe-factor value="100"/>
    <min-distance value="800.0"/>
    <remove-loops value="True"/>
    <validate value="True"/>
    <period value="12.4024"/>
    <random-depart value="True"/>
    <binomial value="4"/>
</configuration>
-->

<!-- generated on 2025-03-09 19:55:41 by Eclipse SUMO duarouter Version v1_19_0+1770-8bb5c24c187
<configuration xmlns:xsi="http://www.w3.org/2001/XMLSchema-instance" xsi:noNamespaceSchemaLocation="http://sumo.dlr.de/xsd/duarouterConfiguration.xsd">

    <input>
        <net-file value="random_subnetwork_3.net.xml"/>
        <route-files value="random_subnetwork_3_light.trips.xml"/>
    </input>

    <output>
        <output-file value="random_subnetwork_3_light.trips.xml.tmp"/>
        <alternatives-output value="NUL"/>
        <write-trips value="true"/>
    </output>

    <processing>
        <remove-loops value="true"/>
    </processing>

    <time>
        <begin value="0.0"/>
        <end value="3600.0"/>
    </time>

    <report>
        <no-warnings value="true"/>
        <ignore-errors value="true"/>
        <no-step-log value="true"/>
    </report>

</duarouterConfiguration>
-->

<routes xmlns:xsi="http://www.w3.org/2001/XMLSchema-instance" xsi:noNamespaceSchemaLocation="http://sumo.dlr.de/xsd/routes_file.xsd">
    <trip id="0" depart="1.00" from="301" to="654"/>
    <trip id="1" depart="12.00" from="-654" to="-301"/>
    <trip id="2" depart="26.00" from="301" to="1799"/>
    <trip id="3" depart="28.00" from="301" to="654"/>
    <trip id="4" depart="36.00" from="301" to="654"/>
    <trip id="5" depart="38.00" from="-1799" to="-301"/>
    <trip id="6" depart="40.00" from="301" to="654"/>
    <trip id="7" depart="44.00" from="-1799" to="-301"/>
    <trip id="8" depart="63.00" from="-654" to="-301"/>
    <trip id="9" depart="97.00" from="-1799" to="-301"/>
    <trip id="10" depart="107.00" from="301" to="654"/>
    <trip id="11" depart="110.00" from="-654" to="-301"/>
    <trip id="12" depart="110.00" from="301" to="654"/>
    <trip id="13" depart="131.00" from="301" to="654"/>
    <trip id="14" depart="172.00" from="301" to="1799"/>
    <trip id="15" depart="187.00" from="301" to="1799"/>
    <trip id="16" depart="201.00" from="301" to="654"/>
    <trip id="17" depart="210.00" from="-654" to="-301"/>
    <trip id="18" depart="240.00" from="301" to="654"/>
    <trip id="19" depart="242.00" from="301" to="1799"/>
    <trip id="20" depart="243.00" from="-654" to="-301"/>
    <trip id="21" depart="260.00" from="-654" to="-301"/>
    <trip id="22" depart="276.00" from="-654" to="-301"/>
    <trip id="23" depart="282.00" from="-1799" to="-301"/>
    <trip id="24" depart="313.00" from="301" to="1799"/>
    <trip id="25" depart="321.00" from="301" to="654"/>
    <trip id="26" depart="332.00" from="-654" to="-301"/>
    <trip id="27" depart="353.00" from="-654" to="-301"/>
    <trip id="28" depart="359.00" from="301" to="1799"/>
    <trip id="29" depart="363.00" from="-1799" to="-301"/>
    <trip id="30" depart="381.00" from="301" to="1799"/>
    <trip id="31" depart="384.00" from="-1799" to="-301"/>
    <trip id="32" depart="386.00" from="301" to="1799"/>
    <trip id="33" depart="411.00" from="301" to="1799"/>
    <trip id="34" depart="411.00" from="-1799" to="-301"/>
    <trip id="35" depart="422.00" from="-1799" to="-301"/>
    <trip id="36" depart="466.00" from="-654" to="-301"/>
    <trip id="37" depart="472.00" from="-1799" to="-301"/>
    <trip id="38" depart="473.00" from="-1799" to="-301"/>
    <trip id="39" depart="480.00" from="301" to="654"/>
    <trip id="40" depart="492.00" from="-1799" to="-301"/>
    <trip id="41" depart="519.00" from="301" to="1799"/>
    <trip id="42" depart="529.00" from="-1799" to="-301"/>
    <trip id="43" depart="531.00" from="-1799" to="-301"/>
    <trip id="44" depart="540.00" from="301" to="1799"/>
    <trip id="45" depart="555.00" from="301" to="1799"/>
    <trip id="46" depart="562.00" from="301" to="1799"/>
    <trip id="47" depart="628.00" from="301" to="654"/>
    <trip id="48" depart="638.00" from="-1799" to="-301"/>
    <trip id="49" depart="642.00" from="-654" to="-301"/>
    <trip id="50" depart="656.00" from="301" to="654"/>
    <trip id="51" depart="679.00" from="301" to="1799"/>
    <trip id="52" depart="682.00" from="301" to="654"/>
    <trip id="53" depart="690.00" from="-1799" to="-301"/>
    <trip id="54" depart="702.00" from="-1799" to="-301"/>
    <trip id="55" depart="725.00" from="-1799" to="-301"/>
    <trip id="56" depart="734.00" from="301" to="1799"/>
    <trip id="57" depart="745.00" from="-1799" to="-301"/>
    <trip id="58" depart="757.00" from="-1799" to="-301"/>
    <trip id="59" depart="759.00" from="301" to="1799"/>
    <trip id="60" depart="771.00" from="301" to="1799"/>
    <trip id="61" depart="786.00" from="-1799" to="-301"/>
    <trip id="62" depart="803.00" from="-654" to="-301"/>
    <trip id="63" depart="823.00" from="-654" to="-301"/>
    <trip id="64" depart="836.00" from="301" to="1799"/>
    <trip id="65" depart="839.00" from="-654" to="-301"/>
    <trip id="66" depart="858.00" from="301" to="1799"/>
    <trip id="67" depart="867.00" from="301" to="654"/>
    <trip id="68" depart="872.00" from="-654" to="-301"/>
    <trip id="69" depart="920.00" from="-1799" to="-301"/>
    <trip id="70" depart="925.00" from="-654" to="-301"/>
    <trip id="71" depart="928.00" from="-1799" to="-301"/>
    <trip id="72" depart="986.00" from="-654" to="-301"/>
    <trip id="73" depart="989.00" from="301" to="654"/>
    <trip id="74" depart="990.00" from="-1799" to="-301"/>
    <trip id="75" depart="1007.00" from="301" to="654"/>
    <trip id="76" depart="1022.00" from="-654" to="-301"/>
    <trip id="77" depart="1028.00" from="-654" to="-301"/>
    <trip id="78" depart="1035.00" from="301" to="1799"/>
    <trip id="79" depart="1039.00" from="-654" to="-301"/>
    <trip id="80" depart="1071.00" from="301" to="654"/>
    <trip id="81" depart="1086.00" from="301" to="654"/>
    <trip id="82" depart="1104.00" from="-654" to="-301"/>
    <trip id="83" depart="1111.00" from="301" to="1799"/>
    <trip id="84" depart="1130.00" from="301" to="654"/>
    <trip id="85" depart="1157.00" from="-654" to="-301"/>
    <trip id="86" depart="1162.00" from="-654" to="-301"/>
    <trip id="87" depart="1173.00" from="-1799" to="-301"/>
    <trip id="88" depart="1209.00" from="-1799" to="-301"/>
    <trip id="89" depart="1210.00" from="-1799" to="-301"/>
    <trip id="90" depart="1237.00" from="-1799" to="-301"/>
    <trip id="91" depart="1243.00" from="-1799" to="-301"/>
    <trip id="92" depart="1243.00" from="301" to="654"/>
    <trip id="93" depart="1257.00" from="301" to="500"/>
    <trip id="94" depart="1266.00" from="-1799" to="-301"/>
    <trip id="95" depart="1284.00" from="301" to="1799"/>
    <trip id="96" depart="1303.00" from="301" to="1799"/>
    <trip id="97" depart="1314.00" from="-654" to="-301"/>
    <trip id="98" depart="1322.00" from="-1799" to="-301"/>
    <trip id="99" depart="1331.00" from="301" to="654"/>
    <trip id="100" depart="1332.00" from="301" to="654"/>
    <trip id="101" depart="1341.00" from="-654" to="-301"/>
    <trip id="102" depart="1346.00" from="301" to="654"/>
    <trip id="103" depart="1356.00" from="-1799" to="-301"/>
    <trip id="104" depart="1367.00" from="301" to="1799"/>
    <trip id="105" depart="1367.00" from="-1799" to="-301"/>
    <trip id="106" depart="1374.00" from="301" to="654"/>
    <trip id="107" depart="1390.00" from="-654" to="-301"/>
    <trip id="108" depart="1395.00" from="301" to="1799"/>
    <trip id="109" depart="1409.00" from="-1799" to="-301"/>
    <trip id="110" depart="1427.00" from="301" to="654"/>
    <trip id="111" depart="1431.00" from="-654" to="-301"/>
    <trip id="112" depart="1447.00" from="-1799" to="-301"/>
    <trip id="113" depart="1455.00" from="301" to="1799"/>
    <trip id="114" depart="1474.00" from="-654" to="-301"/>
    <trip id="115" depart="1476.00" from="-654" to="-301"/>
    <trip id="116" depart="1478.00" from="-654" to="-301"/>
    <trip id="117" depart="1495.00" from="-1799" to="-301"/>
    <trip id="118" depart="1515.00" from="301" to="1799"/>
    <trip id="119" depart="1519.00" from="301" to="654"/>
    <trip id="120" depart="1590.00" from="-654" to="-301"/>
    <trip id="121" depart="1597.00" from="-1799" to="-301"/>
    <trip id="122" depart="1611.00" from="-1799" to="-301"/>
    <trip id="123" depart="1616.00" from="301" to="1799"/>
    <trip id="124" depart="1621.00" from="-654" to="-301"/>
    <trip id="125" depart="1624.00" from="301" to="654"/>
    <trip id="126" depart="1628.00" from="-654" to="-301"/>
    <trip id="127" depart="1672.00" from="-1799" to="-301"/>
    <trip id="128" depart="1685.00" from="-654" to="-301"/>
    <trip id="129" depart="1692.00" from="301" to="1799"/>
    <trip id="130" depart="1701.00" from="301" to="654"/>
    <trip id="131" depart="1728.00" from="301" to="1799"/>
    <trip id="132" depart="1740.00" from="301" to="654"/>
    <trip id="133" depart="1745.00" from="301" to="654"/>
    <trip id="134" depart="1745.00" from="-1799" to="-301"/>
    <trip id="135" depart="1752.00" from="301" to="654"/>
    <trip id="136" depart="1763.00" from="301" to="654"/>
    <trip id="137" depart="1774.00" from="-1799" to="-301"/>
    <trip id="138" depart="1807.00" from="301" to="1799"/>
    <trip id="139" depart="1812.00" from="301" to="1799"/>
    <trip id="140" depart="1819.00" from="-1799" to="-301"/>
    <trip id="141" depart="1826.00" from="-654" to="-301"/>
    <trip id="142" depart="1838.00" from="-1799" to="-301"/>
    <trip id="143" depart="1839.00" from="-1799" to="-301"/>
    <trip id="144" depart="1856.00" from="-1799" to="-301"/>
    <trip id="145" depart="1864.00" from="-1799" to="-301"/>
    <trip id="146" depart="1866.00" from="301" to="1799"/>
    <trip id="147" depart="1872.00" from="301" to="654"/>
    <trip id="148" depart="1874.00" from="301" to="654"/>
    <trip id="149" depart="1879.00" from="301" to="654"/>
    <trip id="150" depart="1905.00" from="-654" to="-301"/>
    <trip id="151" depart="1910.00" from="-1799" to="-301"/>
    <trip id="152" depart="1912.00" from="-1799" to="-301"/>
    <trip id="153" depart="1912.00" from="301" to="654"/>
    <trip id="154" depart="1932.00" from="-654" to="-301"/>
    <trip id="155" depart="1942.00" from="301" to="654"/>
    <trip id="156" depart="1960.00" from="-654" to="-301"/>
    <trip id="157" depart="1962.00" from="-1799" to="-301"/>
    <trip id="158" depart="1968.00" from="-654" to="-301"/>
    <trip id="159" depart="1970.00" from="301" to="1799"/>
    <trip id="160" depart="1988.00" from="-654" to="-301"/>
    <trip id="161" depart="1992.00" from="-654" to="-301"/>
    <trip id="162" depart="1994.00" from="-1799" to="-301"/>
    <trip id="163" depart="2004.00" from="301" to="654"/>
    <trip id="164" depart="2008.00" from="301" to="654"/>
    <trip id="165" depart="2016.00" from="-654" to="-301"/>
    <trip id="166" depart="2021.00" from="-1799" to="-301"/>
    <trip id="167" depart="2021.00" from="-654" to="-301"/>
    <trip id="168" depart="2028.00" from="-654" to="-301"/>
    <trip id="169" depart="2042.00" from="-1799" to="-301"/>
    <trip id="170" depart="2044.00" from="301" to="1799"/>
    <trip id="171" depart="2055.00" from="301" to="1799"/>
    <trip id="172" depart="2090.00" from="301" to="1799"/>
    <trip id="173" depart="2099.00" from="-654" to="-301"/>
    <trip id="174" depart="2104.00" from="-1799" to="-301"/>
    <trip id="175" depart="2111.00" from="-654" to="-301"/>
    <trip id="176" depart="2121.00" from="301" to="1799"/>
    <trip id="177" depart="2135.00" from="301" to="654"/>
    <trip id="178" depart="2145.00" from="301" to="654"/>
    <trip id="179" depart="2146.00" from="-1799" to="-301"/>
    <trip id="180" depart="2150.00" from="301" to="1799"/>
    <trip id="181" depart="2162.00" from="-1799" to="-301"/>
    <trip id="182" depart="2168.00" from="-1799" to="-301"/>
    <trip id="183" depart="2169.00" from="-1799" to="-301"/>
    <trip id="184" depart="2186.00" from="-654" to="-301"/>
    <trip id="185" depart="2189.00" from="301" to="1799"/>
    <trip id="186" depart="2193.00" from="-1799" to="-301"/>
    <trip id="187" depart="2198.00" from="301" to="654"/>
    <trip id="188" depart="2208.00" from="301" to="1799"/>
    <trip id="189" depart="2226.00" from="301" to="654"/>
    <trip id="190" depart="2230.00" from="301" to="654"/>
    <trip id="191" depart="2233.00" from="-654" to="-301"/>
    <trip id="192" depart="2238.00" from="301" to="654"/>
    <trip id="193" depart="2253.00" from="301" to="1799"/>
    <trip id="194" depart="2256.00" from="-1799" to="-301"/>
    <trip id="195" depart="2256.00" from="-1799" to="-301"/>
    <trip id="196" depart="2274.00" from="-654" to="-301"/>
    <trip id="197" depart="2275.00" from="301" to="1799"/>
    <trip id="198" depart="2318.00" from="301" to="1799"/>
    <trip id="199" depart="2324.00" from="-654" to="-301"/>
    <trip id="200" depart="2330.00" from="-654" to="-301"/>
    <trip id="201" depart="2342.00" from="301" to="654"/>
    <trip id="202" depart="2359.00" from="301" to="1799"/>
    <trip id="203" depart="2454.00" from="301" to="1799"/>
    <trip id="204" depart="2459.00" from="-654" to="-301"/>
    <trip id="205" depart="2484.00" from="-654" to="-301"/>
    <trip id="206" depart="2491.00" from="-654" to="-301"/>
    <trip id="207" depart="2521.00" from="-654" to="-301"/>
    <trip id="208" depart="2527.00" from="-654" to="-301"/>
    <trip id="209" depart="2548.00" from="301" to="654"/>
    <trip id="210" depart="2552.00" from="-654" to="-301"/>
    <trip id="211" depart="2552.00" from="301" to="1799"/>
    <trip id="212" depart="2554.00" from="-1799" to="-301"/>
    <trip id="213" depart="2572.00" from="301" to="654"/>
    <trip id="214" depart="2590.00" from="301" to="1799"/>
    <trip id="215" depart="2596.00" from="-1799" to="-301"/>
    <trip id="216" depart="2597.00" from="301" to="654"/>
    <trip id="217" depart="2602.00" from="-1799" to="-301"/>
    <trip id="218" depart="2608.00" from="301" to="1799"/>
    <trip id="219" depart="2614.00" from="301" to="1799"/>
    <trip id="220" depart="2617.00" from="301" to="654"/>
    <trip id="221" depart="2624.00" from="-654" to="-301"/>
    <trip id="222" depart="2631.00" from="301" to="1799"/>
    <trip id="223" depart="2647.00" from="-1799" to="-301"/>
    <trip id="224" depart="2651.00" from="-1799" to="-301"/>
    <trip id="225" depart="2653.00" from="-1799" to="-301"/>
    <trip id="226" depart="2659.00" from="301" to="1799"/>
    <trip id="227" depart="2667.00" from="-654" to="-301"/>
    <trip id="228" depart="2685.00" from="301" to="1799"/>
    <trip id="229" depart="2746.00" from="301" to="654"/>
    <trip id="230" depart="2754.00" from="-1799" to="-301"/>
    <trip id="231" depart="2785.00" from="-1799" to="-301"/>
    <trip id="232" depart="2801.00" from="-654" to="-301"/>
    <trip id="233" depart="2804.00" from="301" to="654"/>
    <trip id="234" depart="2804.00" from="-1799" to="-301"/>
    <trip id="235" depart="2807.00" from="301" to="654"/>
    <trip id="236" depart="2832.00" from="-1799" to="-301"/>
    <trip id="237" depart="2853.00" from="301" to="1799"/>
    <trip id="238" depart="2853.00" from="301" to="1799"/>
    <trip id="239" depart="2872.00" from="301" to="654"/>
    <trip id="240" depart="2872.00" from="301" to="1799"/>
    <trip id="241" depart="2878.00" from="301" to="654"/>
    <trip id="242" depart="2882.00" from="301" to="654"/>
    <trip id="243" depart="2899.00" from="-1799" to="-301"/>
    <trip id="244" depart="2920.00" from="301" to="654"/>
    <trip id="245" depart="2925.00" from="301" to="654"/>
    <trip id="246" depart="2926.00" from="-654" to="-301"/>
    <trip id="247" depart="2936.00" from="301" to="1799"/>
    <trip id="248" depart="2942.00" from="301" to="654"/>
    <trip id="249" depart="2950.00" from="301" to="1799"/>
    <trip id="250" depart="2951.00" from="-654" to="-301"/>
    <trip id="251" depart="2957.00" from="-654" to="-301"/>
    <trip id="252" depart="2964.00" from="-654" to="-301"/>
    <trip id="253" depart="2988.00" from="301" to="654"/>
    <trip id="254" depart="2992.00" from="301" to="1799"/>
    <trip id="255" depart="2999.00" from="301" to="654"/>
    <trip id="256" depart="3017.00" from="-654" to="-301"/>
    <trip id="257" depart="3080.00" from="-654" to="-301"/>
    <trip id="258" depart="3088.00" from="-1799" to="-301"/>
    <trip id="259" depart="3091.00" from="-654" to="-301"/>
    <trip id="260" depart="3106.00" from="-654" to="-301"/>
    <trip id="261" depart="3113.00" from="301" to="1799"/>
    <trip id="262" depart="3129.00" from="301" to="654"/>
    <trip id="263" depart="3136.00" from="-654" to="-301"/>
    <trip id="264" depart="3144.00" from="-1799" to="-301"/>
    <trip id="265" depart="3161.00" from="301" to="654"/>
    <trip id="266" depart="3172.00" from="-654" to="-301"/>
    <trip id="267" depart="3173.00" from="-654" to="-301"/>
    <trip id="268" depart="3175.00" from="-1799" to="-301"/>
    <trip id="269" depart="3183.00" from="301" to="1799"/>
    <trip id="270" depart="3188.00" from="-654" to="-301"/>
    <trip id="271" depart="3197.00" from="301" to="1799"/>
    <trip id="272" depart="3202.00" from="-654" to="-301"/>
    <trip id="273" depart="3210.00" from="-654" to="-301"/>
    <trip id="274" depart="3223.00" from="301" to="1799"/>
    <trip id="275" depart="3271.00" from="-654" to="-301"/>
    <trip id="276" depart="3287.00" from="301" to="1799"/>
    <trip id="277" depart="3288.00" from="301" to="654"/>
    <trip id="278" depart="3289.00" from="-1799" to="-301"/>
    <trip id="279" depart="3321.00" from="301" to="1799"/>
    <trip id="280" depart="3331.00" from="301" to="654"/>
    <trip id="281" depart="3331.00" from="-654" to="-301"/>
    <trip id="282" depart="3349.00" from="-654" to="-301"/>
    <trip id="283" depart="3368.00" from="301" to="1799"/>
    <trip id="284" depart="3374.00" from="301" to="654"/>
    <trip id="285" depart="3383.00" from="-1799" to="-301"/>
    <trip id="286" depart="3393.00" from="301" to="654"/>
    <trip id="287" depart="3432.00" from="-1799" to="-301"/>
    <trip id="288" depart="3455.00" from="301" to="1799"/>
    <trip id="289" depart="3459.00" from="301" to="654"/>
    <trip id="290" depart="3464.00" from="301" to="654"/>
    <trip id="291" depart="3487.00" from="301" to="654"/>
    <trip id="292" depart="3513.00" from="301" to="1799"/>
    <trip id="293" depart="3516.00" from="301" to="654"/>
    <trip id="294" depart="3521.00" from="-1799" to="-301"/>
    <trip id="295" depart="3534.00" from="-1799" to="-301"/>
    <trip id="296" depart="3554.00" from="-1799" to="-301"/>
    <trip id="297" depart="3576.00" from="301" to="1799"/>
</routes>
