<?xml version="1.0" encoding="UTF-8"?>

<!-- generated on 2025-03-09 19:44:15.183104 by randomTrips.py v1_19_0+1770-8bb5c24c187
<configuration>
    <net-file value="random_subnetwork_2.net.xml"/>
    <output-trip-file value="random_subnetwork_2_high.trips.xml"/>
    <fringe-factor value="100"/>
    <remove-loops value="True"/>
    <validate value="True"/>
    <period value="1.4504"/>
    <binomial value="4"/>
</configuration>
-->

<!-- generated on 2025-03-09 19:44:15 by Eclipse SUMO duarouter Version v1_19_0+1770-8bb5c24c187
<configuration xmlns:xsi="http://www.w3.org/2001/XMLSchema-instance" xsi:noNamespaceSchemaLocation="http://sumo.dlr.de/xsd/duarouterConfiguration.xsd">

    <input>
        <net-file value="random_subnetwork_2.net.xml"/>
        <route-files value="random_subnetwork_2_high.trips.xml"/>
    </input>

    <output>
        <output-file value="random_subnetwork_2_high.trips.xml.tmp"/>
        <alternatives-output value="NUL"/>
        <write-trips value="true"/>
    </output>

    <processing>
        <remove-loops value="true"/>
    </processing>

    <time>
        <begin value="0.0"/>
        <end value="3600.0"/>
    </time>

    <report>
        <no-warnings value="true"/>
        <ignore-errors value="true"/>
        <no-step-log value="true"/>
    </report>

</configuration>
-->

<routes xmlns:xsi="http://www.w3.org/2001/XMLSchema-instance" xsi:noNamespaceSchemaLocation="http://sumo.dlr.de/xsd/routes_file.xsd">
    <trip id="0" depart="0.00" from="-27" to="1222"/>
    <trip id="3" depart="3.00" from="-789" to="275"/>
    <trip id="5" depart="4.00" from="-1926" to="497"/>
    <trip id="7" depart="7.00" from="-2054" to="-1439"/>
    <trip id="9" depart="12.00" from="-27" to="1222"/>
    <trip id="11" depart="18.00" from="-270" to="678"/>
    <trip id="12" depart="19.00" from="-678" to="275"/>
    <trip id="14" depart="22.00" from="-678" to="27"/>
    <trip id="18" depart="25.00" from="-275" to="27"/>
    <trip id="20" depart="30.00" from="-497" to="1222"/>
    <trip id="24" depart="33.00" from="-270" to="1926"/>
    <trip id="25" depart="36.00" from="789" to="497"/>
    <trip id="26" depart="37.00" from="-275" to="1222"/>
    <trip id="27" depart="38.00" from="-270" to="678"/>
    <trip id="28" depart="40.00" from="-27" to="678"/>
    <trip id="29" depart="41.00" from="-301" to="27"/>
    <trip id="30" depart="42.00" from="1439" to="-1102"/>
    <trip id="32" depart="47.00" from="-275" to="678"/>
    <trip id="37" depart="53.00" from="-270" to="1222"/>
    <trip id="38" depart="53.00" from="-678" to="270"/>
    <trip id="39" depart="54.00" from="-1222" to="497"/>
    <trip id="40" depart="56.00" from="-1926" to="1926"/>
    <trip id="41" depart="57.00" from="-678" to="497"/>
    <trip id="43" depart="59.00" from="-678" to="1926"/>
    <trip id="46" depart="65.00" from="1439" to="-1573"/>
    <trip id="47" depart="66.00" from="-270" to="295"/>
    <trip id="49" depart="69.00" from="-497" to="1926"/>
    <trip id="50" depart="71.00" from="-270" to="678"/>
    <trip id="52" depart="75.00" from="-1222" to="27"/>
    <trip id="54" depart="77.00" from="-270" to="270"/>
    <trip id="55" depart="79.00" from="-678" to="301"/>
    <trip id="58" depart="86.00" from="-27" to="1222"/>
    <trip id="60" depart="87.00" from="-270" to="27"/>
    <trip id="61" depart="89.00" from="-27" to="301"/>
    <trip id="62" depart="92.00" from="-27" to="275"/>
    <trip id="64" depart="93.00" from="-270" to="270"/>
    <trip id="66" depart="94.00" from="-270" to="1222"/>
    <trip id="67" depart="95.00" from="-1222" to="27"/>
    <trip id="69" depart="99.00" from="-301" to="301"/>
    <trip id="71" depart="100.00" from="-1222" to="1926"/>
    <trip id="72" depart="101.00" from="-497" to="270"/>
    <trip id="73" depart="101.00" from="-678" to="497"/>
    <trip id="74" depart="102.00" from="-154" to="301"/>
    <trip id="78" depart="110.00" from="1439" to="-1102"/>
    <trip id="80" depart="115.00" from="-2054" to="-1439"/>
    <trip id="82" depart="118.00" from="289" to="1222"/>
    <trip id="86" depart="121.00" from="-301" to="1926"/>
    <trip id="87" depart="122.00" from="-678" to="270"/>
    <trip id="89" depart="126.00" from="-275" to="270"/>
    <trip id="90" depart="130.00" from="-1926" to="1926"/>
    <trip id="91" depart="131.00" from="-497" to="275"/>
    <trip id="94" depart="135.00" from="-678" to="27"/>
    <trip id="95" depart="136.00" from="-27" to="1926"/>
    <trip id="97" depart="144.00" from="-301" to="270"/>
    <trip id="98" depart="144.00" from="303" to="678"/>
    <trip id="100" depart="151.00" from="-301" to="1926"/>
    <trip id="101" depart="153.00" from="-678" to="275"/>
    <trip id="102" depart="155.00" from="-275" to="270"/>
    <trip id="103" depart="157.00" from="-275" to="678"/>
    <trip id="104" depart="160.00" from="-1222" to="270"/>
    <trip id="105" depart="162.00" from="-497" to="497"/>
    <trip id="106" depart="163.00" from="-678" to="1926"/>
    <trip id="107" depart="163.00" from="-275" to="270"/>
    <trip id="108" depart="164.00" from="-1222" to="497"/>
    <trip id="109" depart="165.00" from="-275" to="1222"/>
    <trip id="110" depart="165.00" from="-678" to="497"/>
    <trip id="111" depart="166.00" from="-270" to="1926"/>
    <trip id="112" depart="171.00" from="-301" to="27"/>
    <trip id="113" depart="175.00" from="-27" to="301"/>
    <trip id="114" depart="176.00" from="-301" to="678"/>
    <trip id="115" depart="178.00" from="1439" to="-1439"/>
    <trip id="117" depart="182.00" from="-2054" to="-1102"/>
    <trip id="120" depart="185.00" from="1102" to="-1439"/>
    <trip id="123" depart="188.00" from="-497" to="27"/>
    <trip id="124" depart="189.00" from="1102" to="2054"/>
    <trip id="125" depart="190.00" from="-678" to="1222"/>
    <trip id="127" depart="192.00" from="1439" to="-1102"/>
    <trip id="128" depart="193.00" from="-1926" to="1222"/>
    <trip id="129" depart="193.00" from="-1222" to="301"/>
    <trip id="130" depart="194.00" from="-678" to="27"/>
    <trip id="131" depart="196.00" from="-275" to="678"/>
    <trip id="132" depart="196.00" from="-678" to="497"/>
    <trip id="134" depart="198.00" from="-1222" to="270"/>
    <trip id="135" depart="198.00" from="-27" to="270"/>
    <trip id="136" depart="200.00" from="-497" to="497"/>
    <trip id="137" depart="202.00" from="-270" to="275"/>
    <trip id="138" depart="203.00" from="1439" to="-1102"/>
    <trip id="139" depart="203.00" from="-1926" to="301"/>
    <trip id="140" depart="205.00" from="-27" to="275"/>
    <trip id="146" depart="216.00" from="-270" to="154"/>
    <trip id="147" depart="217.00" from="-270" to="270"/>
    <trip id="148" depart="218.00" from="-27" to="1222"/>
    <trip id="151" depart="220.00" from="1102" to="-1102"/>
    <trip id="153" depart="221.00" from="-1222" to="1926"/>
    <trip id="158" depart="231.00" from="-275" to="1926"/>
    <trip id="159" depart="231.00" from="1102" to="-1102"/>
    <trip id="161" depart="237.00" from="-270" to="154"/>
    <trip id="162" depart="239.00" from="-1926" to="275"/>
    <trip id="163" depart="241.00" from="-27" to="678"/>
    <trip id="164" depart="246.00" from="-1222" to="497"/>
    <trip id="165" depart="247.00" from="-678" to="497"/>
    <trip id="166" depart="247.00" from="-27" to="301"/>
    <trip id="171" depart="256.00" from="-270" to="678"/>
    <trip id="172" depart="257.00" from="-1222" to="27"/>
    <trip id="174" depart="259.00" from="-27" to="497"/>
    <trip id="176" depart="259.00" from="-1222" to="1222"/>
    <trip id="177" depart="261.00" from="-27" to="1926"/>
    <trip id="178" depart="261.00" from="-270" to="301"/>
    <trip id="180" depart="262.00" from="-275" to="1222"/>
    <trip id="181" depart="262.00" from="-270" to="270"/>
    <trip id="182" depart="263.00" from="1439" to="-1102"/>
    <trip id="183" depart="265.00" from="-678" to="1926"/>
    <trip id="184" depart="267.00" from="-301" to="301"/>
    <trip id="186" depart="269.00" from="-2054" to="-1102"/>
    <trip id="187" depart="272.00" from="-270" to="497"/>
    <trip id="188" depart="275.00" from="-301" to="497"/>
    <trip id="189" depart="276.00" from="-497" to="1926"/>
    <trip id="191" depart="278.00" from="-497" to="1926"/>
    <trip id="192" depart="279.00" from="-301" to="301"/>
    <trip id="193" depart="279.00" from="-1222" to="301"/>
    <trip id="194" depart="283.00" from="-678" to="27"/>
    <trip id="195" depart="285.00" from="1102" to="2054"/>
    <trip id="196" depart="286.00" from="-497" to="497"/>
    <trip id="197" depart="287.00" from="-301" to="497"/>
    <trip id="198" depart="289.00" from="-2054" to="-1439"/>
    <trip id="199" depart="289.00" from="-301" to="1926"/>
    <trip id="200" depart="290.00" from="-27" to="789"/>
    <trip id="203" depart="294.00" from="-27" to="275"/>
    <trip id="204" depart="296.00" from="-27" to="27"/>
    <trip id="205" depart="297.00" from="1439" to="-1439"/>
    <trip id="206" depart="299.00" from="-1222" to="275"/>
    <trip id="208" depart="304.00" from="-270" to="270"/>
    <trip id="210" depart="307.00" from="-27" to="270"/>
    <trip id="212" depart="309.00" from="-275" to="497"/>
    <trip id="213" depart="313.00" from="-275" to="301"/>
    <trip id="214" depart="314.00" from="1439" to="2054"/>
    <trip id="215" depart="316.00" from="-1926" to="1926"/>
    <trip id="216" depart="318.00" from="295" to="301"/>
    <trip id="217" depart="321.00" from="-275" to="678"/>
    <trip id="218" depart="323.00" from="-497" to="270"/>
    <trip id="220" depart="324.00" from="-1222" to="1926"/>
    <trip id="222" depart="325.00" from="-1926" to="1222"/>
    <trip id="224" depart="336.00" from="-301" to="270"/>
    <trip id="225" depart="338.00" from="-270" to="275"/>
    <trip id="227" depart="341.00" from="-301" to="27"/>
    <trip id="230" depart="350.00" from="-497" to="-3"/>
    <trip id="231" depart="350.00" from="-27" to="1222"/>
    <trip id="232" depart="352.00" from="-497" to="275"/>
    <trip id="233" depart="352.00" from="-1926" to="1926"/>
    <trip id="235" depart="355.00" from="-1926" to="301"/>
    <trip id="236" depart="357.00" from="-275" to="275"/>
    <trip id="238" depart="359.00" from="-27" to="27"/>
    <trip id="240" depart="359.00" from="-275" to="301"/>
    <trip id="241" depart="360.00" from="-275" to="301"/>
    <trip id="243" depart="362.00" from="1439" to="-1102"/>
    <trip id="244" depart="368.00" from="-1222" to="1926"/>
    <trip id="245" depart="370.00" from="1102" to="2054"/>
    <trip id="246" depart="371.00" from="-2054" to="-1439"/>
    <trip id="247" depart="371.00" from="-301" to="275"/>
    <trip id="249" depart="373.00" from="-275" to="1926"/>
    <trip id="250" depart="375.00" from="-497" to="1222"/>
    <trip id="252" depart="378.00" from="-270" to="301"/>
    <trip id="254" depart="381.00" from="-678" to="-503"/>
    <trip id="256" depart="385.00" from="789" to="27"/>
    <trip id="261" depart="395.00" from="-1222" to="497"/>
    <trip id="266" depart="404.00" from="-270" to="270"/>
    <trip id="269" depart="407.00" from="-1222" to="678"/>
    <trip id="271" depart="409.00" from="-1926" to="1222"/>
    <trip id="272" depart="411.00" from="-262" to="275"/>
    <trip id="273" depart="411.00" from="-270" to="497"/>
    <trip id="274" depart="413.00" from="-27" to="678"/>
    <trip id="275" depart="415.00" from="-301" to="301"/>
    <trip id="276" depart="415.00" from="-1926" to="275"/>
    <trip id="277" depart="416.00" from="-1222" to="1926"/>
    <trip id="278" depart="417.00" from="-2054" to="2054"/>
    <trip id="284" depart="422.00" from="-27" to="678"/>
    <trip id="285" depart="424.00" from="-27" to="678"/>
    <trip id="286" depart="428.00" from="-301" to="270"/>
    <trip id="287" depart="432.00" from="-295" to="27"/>
    <trip id="288" depart="435.00" from="-678" to="275"/>
    <trip id="289" depart="436.00" from="154" to="275"/>
    <trip id="292" depart="440.00" from="1439" to="-1439"/>
    <trip id="294" depart="443.00" from="154" to="1222"/>
    <trip id="295" depart="444.00" from="-301" to="678"/>
    <trip id="296" depart="445.00" from="-301" to="1222"/>
    <trip id="297" depart="447.00" from="-1926" to="497"/>
    <trip id="299" depart="453.00" from="-270" to="-303"/>
    <trip id="303" depart="457.00" from="-1222" to="301"/>
    <trip id="304" depart="458.00" from="-275" to="301"/>
    <trip id="305" depart="459.00" from="-1926" to="301"/>
    <trip id="306" depart="460.00" from="-678" to="27"/>
    <trip id="308" depart="464.00" from="-1926" to="1222"/>
    <trip id="309" depart="465.00" from="-27" to="1222"/>
    <trip id="312" depart="471.00" from="-275" to="1222"/>
    <trip id="313" depart="472.00" from="-678" to="301"/>
    <trip id="314" depart="473.00" from="-295" to="1222"/>
    <trip id="315" depart="476.00" from="-1926" to="301"/>
    <trip id="316" depart="477.00" from="1102" to="2054"/>
    <trip id="319" depart="479.00" from="-270" to="1926"/>
    <trip id="321" depart="481.00" from="-497" to="303"/>
    <trip id="323" depart="482.00" from="-27" to="497"/>
    <trip id="324" depart="483.00" from="-678" to="301"/>
    <trip id="327" depart="484.00" from="-270" to="275"/>
    <trip id="328" depart="485.00" from="-1926" to="301"/>
    <trip id="331" depart="490.00" from="-275" to="270"/>
    <trip id="333" depart="492.00" from="-1222" to="1222"/>
    <trip id="334" depart="493.00" from="-1222" to="301"/>
    <trip id="335" depart="494.00" from="-301" to="270"/>
    <trip id="336" depart="497.00" from="-497" to="301"/>
    <trip id="338" depart="499.00" from="-497" to="275"/>
    <trip id="340" depart="500.00" from="-1926" to="301"/>
    <trip id="341" depart="501.00" from="11" to="1222"/>
    <trip id="342" depart="501.00" from="-497" to="270"/>
    <trip id="343" depart="501.00" from="-275" to="1926"/>
    <trip id="344" depart="503.00" from="-301" to="275"/>
    <trip id="347" depart="506.00" from="-270" to="27"/>
    <trip id="348" depart="508.00" from="-275" to="15"/>
    <trip id="350" depart="512.00" from="-270" to="1222"/>
    <trip id="351" depart="513.00" from="-497" to="497"/>
    <trip id="352" depart="513.00" from="-275" to="1222"/>
    <trip id="353" depart="514.00" from="-503" to="275"/>
    <trip id="358" depart="519.00" from="-1926" to="27"/>
    <trip id="359" depart="521.00" from="-1926" to="275"/>
    <trip id="363" depart="524.00" from="-1222" to="497"/>
    <trip id="365" depart="526.00" from="-1222" to="497"/>
    <trip id="369" depart="529.00" from="-301" to="1222"/>
    <trip id="371" depart="535.00" from="3" to="27"/>
    <trip id="372" depart="536.00" from="-497" to="1222"/>
    <trip id="373" depart="537.00" from="-5" to="1222"/>
    <trip id="374" depart="540.00" from="-497" to="678"/>
    <trip id="377" depart="543.00" from="-515" to="678"/>
    <trip id="378" depart="544.00" from="-301" to="678"/>
    <trip id="381" depart="549.00" from="-678" to="678"/>
    <trip id="382" depart="550.00" from="-301" to="678"/>
    <trip id="383" depart="552.00" from="-678" to="1222"/>
    <trip id="384" depart="552.00" from="1102" to="-1439"/>
    <trip id="385" depart="554.00" from="-2054" to="-1439"/>
    <trip id="386" depart="554.00" from="-270" to="301"/>
    <trip id="387" depart="556.00" from="-275" to="497"/>
    <trip id="388" depart="556.00" from="-1222" to="497"/>
    <trip id="390" depart="558.00" from="-301" to="270"/>
    <trip id="391" depart="559.00" from="1439" to="-1439"/>
    <trip id="392" depart="559.00" from="-1926" to="1222"/>
    <trip id="393" depart="561.00" from="-301" to="497"/>
    <trip id="395" depart="563.00" from="-1926" to="1926"/>
    <trip id="397" depart="564.00" from="-301" to="3"/>
    <trip id="398" depart="566.00" from="-678" to="275"/>
    <trip id="399" depart="566.00" from="-27" to="27"/>
    <trip id="402" depart="572.00" from="-270" to="678"/>
    <trip id="404" depart="576.00" from="-301" to="301"/>
    <trip id="405" depart="577.00" from="-27" to="27"/>
    <trip id="409" depart="582.00" from="1102" to="-1439"/>
    <trip id="410" depart="586.00" from="-27" to="27"/>
    <trip id="413" depart="589.00" from="-1222" to="1926"/>
    <trip id="415" depart="591.00" from="-301" to="678"/>
    <trip id="416" depart="593.00" from="-678" to="301"/>
    <trip id="419" depart="596.00" from="-275" to="275"/>
    <trip id="420" depart="598.00" from="-1222" to="678"/>
    <trip id="421" depart="600.00" from="-678" to="497"/>
    <trip id="422" depart="603.00" from="-497" to="270"/>
    <trip id="423" depart="606.00" from="-1926" to="1222"/>
    <trip id="424" depart="607.00" from="-27" to="301"/>
    <trip id="426" depart="611.00" from="1102" to="-1439"/>
    <trip id="427" depart="614.00" from="-27" to="301"/>
    <trip id="428" depart="615.00" from="-678" to="27"/>
    <trip id="429" depart="615.00" from="-301" to="270"/>
    <trip id="430" depart="616.00" from="-2054" to="2054"/>
    <trip id="431" depart="616.00" from="-27" to="497"/>
    <trip id="432" depart="618.00" from="-270" to="270"/>
    <trip id="434" depart="622.00" from="-678" to="270"/>
    <trip id="435" depart="623.00" from="-270" to="275"/>
    <trip id="437" depart="623.00" from="-480" to="275"/>
    <trip id="439" depart="625.00" from="-497" to="270"/>
    <trip id="440" depart="626.00" from="1102" to="-1439"/>
    <trip id="442" depart="629.00" from="-275" to="1222"/>
    <trip id="443" depart="630.00" from="-497" to="497"/>
    <trip id="444" depart="630.00" from="-154" to="27"/>
    <trip id="451" depart="637.00" from="-270" to="270"/>
    <trip id="452" depart="639.00" from="-497" to="497"/>
    <trip id="453" depart="639.00" from="1439" to="-1439"/>
    <trip id="455" depart="643.00" from="-497" to="1222"/>
    <trip id="457" depart="645.00" from="-275" to="1222"/>
    <trip id="459" depart="648.00" from="-275" to="275"/>
    <trip id="460" depart="648.00" from="-270" to="270"/>
    <trip id="462" depart="650.00" from="-2054" to="2054"/>
    <trip id="463" depart="652.00" from="-678" to="1222"/>
    <trip id="465" depart="654.00" from="-301" to="480"/>
    <trip id="466" depart="656.00" from="-270" to="678"/>
    <trip id="467" depart="658.00" from="-275" to="27"/>
    <trip id="469" depart="660.00" from="-270" to="270"/>
    <trip id="470" depart="662.00" from="-270" to="275"/>
    <trip id="471" depart="667.00" from="-27" to="27"/>
    <trip id="472" depart="670.00" from="-1926" to="275"/>
    <trip id="473" depart="670.00" from="-27" to="1222"/>
    <trip id="474" depart="672.00" from="1102" to="-1439"/>
    <trip id="476" depart="681.00" from="-301" to="1222"/>
    <trip id="477" depart="682.00" from="-1926" to="1926"/>
    <trip id="484" depart="692.00" from="-1222" to="275"/>
    <trip id="485" depart="693.00" from="-301" to="275"/>
    <trip id="486" depart="695.00" from="-275" to="1926"/>
    <trip id="487" depart="695.00" from="-1222" to="301"/>
    <trip id="488" depart="697.00" from="-497" to="27"/>
    <trip id="489" depart="699.00" from="1439" to="-1439"/>
    <trip id="491" depart="701.00" from="-270" to="301"/>
    <trip id="492" depart="701.00" from="-497" to="678"/>
    <trip id="493" depart="703.00" from="-1222" to="270"/>
    <trip id="495" depart="708.00" from="-1926" to="275"/>
    <trip id="498" depart="713.00" from="-678" to="497"/>
    <trip id="499" depart="715.00" from="-301" to="1222"/>
    <trip id="507" depart="734.00" from="1102" to="-1102"/>
    <trip id="510" depart="736.00" from="-678" to="275"/>
    <trip id="511" depart="737.00" from="-275" to="678"/>
    <trip id="514" depart="741.00" from="-1926" to="27"/>
    <trip id="515" depart="741.00" from="-678" to="27"/>
    <trip id="517" depart="744.00" from="-275" to="1222"/>
    <trip id="518" depart="746.00" from="-1926" to="27"/>
    <trip id="519" depart="748.00" from="-1222" to="275"/>
    <trip id="520" depart="749.00" from="-497" to="1222"/>
    <trip id="521" depart="755.00" from="-2054" to="2054"/>
    <trip id="522" depart="756.00" from="1439" to="-1102"/>
    <trip id="523" depart="756.00" from="-1926" to="678"/>
    <trip id="524" depart="757.00" from="-2054" to="-1102"/>
    <trip id="525" depart="757.00" from="-270" to="678"/>
    <trip id="526" depart="760.00" from="-301" to="27"/>
    <trip id="527" depart="761.00" from="-1222" to="1222"/>
    <trip id="528" depart="761.00" from="-1926" to="678"/>
    <trip id="530" depart="766.00" from="-1222" to="1926"/>
    <trip id="533" depart="772.00" from="-497" to="497"/>
    <trip id="535" depart="776.00" from="-1926" to="678"/>
    <trip id="536" depart="777.00" from="-275" to="270"/>
    <trip id="537" depart="780.00" from="-678" to="27"/>
    <trip id="539" depart="787.00" from="-301" to="1222"/>
    <trip id="540" depart="787.00" from="-266" to="1222"/>
    <trip id="541" depart="788.00" from="1439" to="-1439"/>
    <trip id="543" depart="793.00" from="-1926" to="497"/>
    <trip id="544" depart="797.00" from="-1926" to="301"/>
    <trip id="545" depart="798.00" from="-1926" to="1222"/>
    <trip id="546" depart="801.00" from="-678" to="275"/>
    <trip id="549" depart="803.00" from="-270" to="301"/>
    <trip id="550" depart="803.00" from="-2054" to="-1439"/>
    <trip id="551" depart="805.00" from="1102" to="-1102"/>
    <trip id="554" depart="812.00" from="-270" to="1926"/>
    <trip id="557" depart="819.00" from="-1222" to="27"/>
    <trip id="558" depart="819.00" from="-262" to="275"/>
    <trip id="559" depart="820.00" from="-275" to="1926"/>
    <trip id="561" depart="824.00" from="-678" to="1222"/>
    <trip id="562" depart="825.00" from="-275" to="301"/>
    <trip id="564" depart="829.00" from="-497" to="1926"/>
    <trip id="566" depart="829.00" from="-1222" to="301"/>
    <trip id="568" depart="832.00" from="-497" to="275"/>
    <trip id="571" depart="837.00" from="-1926" to="1926"/>
    <trip id="576" depart="842.00" from="-301" to="497"/>
    <trip id="579" depart="847.00" from="-1222" to="1926"/>
    <trip id="580" depart="848.00" from="-678" to="27"/>
    <trip id="581" depart="850.00" from="-497" to="1926"/>
    <trip id="582" depart="851.00" from="-2054" to="2054"/>
    <trip id="585" depart="859.00" from="-1222" to="1926"/>
    <trip id="586" depart="859.00" from="-270" to="270"/>
    <trip id="587" depart="860.00" from="-270" to="678"/>
    <trip id="588" depart="863.00" from="-1222" to="301"/>
    <trip id="592" depart="869.00" from="-1222" to="270"/>
    <trip id="594" depart="870.00" from="-1926" to="270"/>
    <trip id="595" depart="871.00" from="-678" to="1926"/>
    <trip id="597" depart="873.00" from="-27" to="678"/>
    <trip id="598" depart="874.00" from="-1222" to="43"/>
    <trip id="599" depart="875.00" from="-1222" to="678"/>
    <trip id="606" depart="882.00" from="-27" to="497"/>
    <trip id="608" depart="884.00" from="-27" to="1926"/>
    <trip id="609" depart="887.00" from="-301" to="1222"/>
    <trip id="611" depart="887.00" from="-270" to="678"/>
    <trip id="613" depart="890.00" from="-301" to="301"/>
    <trip id="614" depart="891.00" from="5" to="678"/>
    <trip id="616" depart="892.00" from="-27" to="497"/>
    <trip id="618" depart="899.00" from="-2054" to="-1102"/>
    <trip id="622" depart="905.00" from="-5" to="27"/>
    <trip id="625" depart="909.00" from="-678" to="678"/>
    <trip id="628" depart="916.00" from="1102" to="-1916"/>
    <trip id="629" depart="917.00" from="-1926" to="1222"/>
    <trip id="631" depart="920.00" from="-301" to="1222"/>
    <trip id="632" depart="921.00" from="-1926" to="275"/>
    <trip id="635" depart="925.00" from="-27" to="1926"/>
    <trip id="636" depart="925.00" from="-270" to="27"/>
    <trip id="637" depart="926.00" from="-497" to="1222"/>
    <trip id="638" depart="927.00" from="-678" to="270"/>
    <trip id="639" depart="930.00" from="-301" to="27"/>
    <trip id="640" depart="932.00" from="-1222" to="270"/>
    <trip id="643" depart="935.00" from="-497" to="1926"/>
    <trip id="644" depart="936.00" from="-1926" to="1926"/>
    <trip id="645" depart="942.00" from="154" to="270"/>
    <trip id="646" depart="944.00" from="-270" to="27"/>
    <trip id="647" depart="946.00" from="-678" to="301"/>
    <trip id="648" depart="947.00" from="-275" to="27"/>
    <trip id="653" depart="953.00" from="-1926" to="1222"/>
    <trip id="654" depart="953.00" from="-301" to="27"/>
    <trip id="655" depart="954.00" from="-497" to="-154"/>
    <trip id="656" depart="955.00" from="-301" to="1926"/>
    <trip id="657" depart="955.00" from="-275" to="275"/>
    <trip id="660" depart="964.00" from="-275" to="1926"/>
    <trip id="661" depart="964.00" from="-678" to="270"/>
    <trip id="662" depart="964.00" from="-1926" to="-303"/>
    <trip id="664" depart="972.00" from="-1926" to="301"/>
    <trip id="667" depart="977.00" from="-1222" to="678"/>
    <trip id="668" depart="978.00" from="-27" to="1926"/>
    <trip id="669" depart="978.00" from="-497" to="497"/>
    <trip id="670" depart="982.00" from="515" to="275"/>
    <trip id="673" depart="989.00" from="-275" to="275"/>
    <trip id="674" depart="990.00" from="-678" to="678"/>
    <trip id="675" depart="991.00" from="1102" to="-1439"/>
    <trip id="676" depart="992.00" from="-497" to="301"/>
    <trip id="677" depart="992.00" from="-27" to="301"/>
    <trip id="680" depart="995.00" from="289" to="301"/>
    <trip id="681" depart="996.00" from="-275" to="497"/>
    <trip id="682" depart="997.00" from="-27" to="497"/>
    <trip id="684" depart="997.00" from="-275" to="301"/>
    <trip id="685" depart="999.00" from="-1926" to="678"/>
    <trip id="686" depart="999.00" from="-275" to="678"/>
    <trip id="688" depart="1004.00" from="1102" to="-1102"/>
    <trip id="693" depart="1013.00" from="1102" to="-1439"/>
    <trip id="694" depart="1017.00" from="-1222" to="301"/>
    <trip id="696" depart="1020.00" from="-678" to="1222"/>
    <trip id="697" depart="1021.00" from="-1222" to="270"/>
    <trip id="698" depart="1022.00" from="-497" to="678"/>
    <trip id="700" depart="1027.00" from="295" to="678"/>
    <trip id="701" depart="1028.00" from="-275" to="301"/>
    <trip id="702" depart="1028.00" from="-270" to="515"/>
    <trip id="703" depart="1030.00" from="-497" to="301"/>
    <trip id="705" depart="1031.00" from="-301" to="1926"/>
    <trip id="706" depart="1032.00" from="-1222" to="301"/>
    <trip id="707" depart="1032.00" from="-1926" to="301"/>
    <trip id="708" depart="1033.00" from="-301" to="678"/>
    <trip id="709" depart="1034.00" from="-1926" to="275"/>
    <trip id="711" depart="1035.00" from="-1222" to="1926"/>
    <trip id="712" depart="1035.00" from="-301" to="303"/>
    <trip id="713" depart="1036.00" from="-275" to="301"/>
    <trip id="716" depart="1040.00" from="-1926" to="497"/>
    <trip id="718" depart="1042.00" from="-497" to="497"/>
    <trip id="720" depart="1046.00" from="-2054" to="-1439"/>
    <trip id="721" depart="1046.00" from="-270" to="301"/>
    <trip id="723" depart="1051.00" from="-678" to="678"/>
    <trip id="725" depart="1054.00" from="-678" to="497"/>
    <trip id="726" depart="1055.00" from="1439" to="2054"/>
    <trip id="727" depart="1056.00" from="-678" to="270"/>
    <trip id="729" depart="1057.00" from="1102" to="2054"/>
    <trip id="730" depart="1057.00" from="-27" to="497"/>
    <trip id="734" depart="1062.00" from="-275" to="301"/>
    <trip id="735" depart="1062.00" from="-275" to="27"/>
    <trip id="736" depart="1064.00" from="-678" to="678"/>
    <trip id="737" depart="1064.00" from="-27" to="275"/>
    <trip id="738" depart="1064.00" from="-275" to="1926"/>
    <trip id="739" depart="1065.00" from="-275" to="301"/>
    <trip id="741" depart="1067.00" from="-270" to="1222"/>
    <trip id="744" depart="1069.00" from="-270" to="270"/>
    <trip id="745" depart="1070.00" from="-497" to="1222"/>
    <trip id="746" depart="1071.00" from="-275" to="678"/>
    <trip id="747" depart="1074.00" from="-27" to="27"/>
    <trip id="748" depart="1074.00" from="-497" to="275"/>
    <trip id="749" depart="1076.00" from="1102" to="2054"/>
    <trip id="751" depart="1077.00" from="-27" to="275"/>
    <trip id="757" depart="1086.00" from="-2054" to="-1102"/>
    <trip id="759" depart="1087.00" from="-27" to="1926"/>
    <trip id="760" depart="1087.00" from="-27" to="678"/>
    <trip id="761" depart="1088.00" from="-275" to="1926"/>
    <trip id="762" depart="1088.00" from="-678" to="678"/>
    <trip id="763" depart="1090.00" from="-301" to="497"/>
    <trip id="764" depart="1092.00" from="-301" to="1926"/>
    <trip id="765" depart="1093.00" from="-1222" to="275"/>
    <trip id="767" depart="1094.00" from="-275" to="1222"/>
    <trip id="772" depart="1101.00" from="-270" to="678"/>
    <trip id="773" depart="1102.00" from="-2054" to="2054"/>
    <trip id="775" depart="1104.00" from="-1222" to="1222"/>
    <trip id="776" depart="1106.00" from="-27" to="678"/>
    <trip id="777" depart="1106.00" from="-678" to="270"/>
    <trip id="778" depart="1108.00" from="-275" to="270"/>
    <trip id="779" depart="1108.00" from="-1222" to="1926"/>
    <trip id="780" depart="1109.00" from="-1926" to="1222"/>
    <trip id="781" depart="1111.00" from="-678" to="27"/>
    <trip id="782" depart="1113.00" from="-301" to="497"/>
    <trip id="783" depart="1113.00" from="-275" to="1926"/>
    <trip id="784" depart="1114.00" from="-1926" to="1222"/>
    <trip id="787" depart="1120.00" from="-2054" to="-1439"/>
    <trip id="788" depart="1120.00" from="-1222" to="275"/>
    <trip id="789" depart="1121.00" from="-678" to="301"/>
    <trip id="790" depart="1121.00" from="-1926" to="301"/>
    <trip id="791" depart="1122.00" from="-1926" to="1222"/>
    <trip id="792" depart="1122.00" from="-497" to="301"/>
    <trip id="794" depart="1124.00" from="-275" to="-3"/>
    <trip id="797" depart="1130.00" from="1573" to="-1439"/>
    <trip id="798" depart="1130.00" from="-1926" to="301"/>