<?xml version="1.0" encoding="UTF-8"?>

<!-- generated on 2025-03-19 08:53:40.615489 by randomTrips.py v1_22_0+0449-9311ec3459f
<configuration>
    <net-file value="random_subnetwork_5.net.xml"/>
    <output-trip-file value="random_subnetwork_5_medium.trips.xml"/>
    <fringe-factor value="100"/>
    <min-distance value="600.0"/>
    <remove-loops value="True"/>
    <validate value="True"/>
    <period value="1.75"/>
    <random-depart value="True"/>
    <binomial value="10"/>
</configuration>
-->

<!-- generated on 2025-03-19 08:53:40 by Eclipse SUMO duarouter Version v1_22_0+0449-9311ec3459f
<duarouterConfiguration xmlns:xsi="http://www.w3.org/2001/XMLSchema-instance" xsi:noNamespaceSchemaLocation="http://sumo.dlr.de/xsd/duarouterConfiguration.xsd">

    <input>
        <net-file value="random_subnetwork_5.net.xml"/>
        <route-files value="random_subnetwork_5_medium.trips.xml"/>
    </input>

    <output>
        <output-file value="random_subnetwork_5_medium.trips.xml.tmp"/>
        <alternatives-output value="NUL"/>
        <write-trips value="true"/>
    </output>

    <processing>
        <remove-loops value="true"/>
    </processing>

    <time>
        <begin value="0.0"/>
        <end value="3600.0"/>
    </time>

    <report>
        <no-warnings value="true"/>
        <ignore-errors value="true"/>
        <no-step-log value="true"/>
    </report>

</duarouterConfiguration>
-->

<routes xmlns:xsi="http://www.w3.org/2001/XMLSchema-instance" xsi:noNamespaceSchemaLocation="http://sumo.dlr.de/xsd/routes_file.xsd">
    <trip id="0" depart="0.00" from="-1573" to="1085"/>
    <trip id="1" depart="0.00" from="-1568" to="1573"/>
    <trip id="2" depart="0.00" from="-1568" to="1690"/>
    <trip id="3" depart="1.00" from="-939" to="1690"/>
    <trip id="4" depart="3.00" from="-1568" to="1104"/>
    <trip id="5" depart="5.00" from="-1573" to="1085"/>
    <trip id="6" depart="7.00" from="-1085" to="1568"/>
    <trip id="7" depart="8.00" from="-939" to="1690"/>
    <trip id="8" depart="10.00" from="275" to="819"/>
    <trip id="10" depart="24.00" from="1222" to="1104"/>
    <trip id="11" depart="26.00" from="-939" to="1690"/>
    <trip id="12" depart="26.00" from="275" to="1573"/>
    <trip id="13" depart="29.00" from="-939" to="1104"/>
    <trip id="14" depart="30.00" from="-1568" to="1104"/>
    <trip id="15" depart="33.00" from="275" to="1573"/>
    <trip id="16" depart="35.00" from="-1573" to="1568"/>
    <trip id="17" depart="37.00" from="-1568" to="1573"/>
    <trip id="18" depart="38.00" from="-939" to="531"/>
    <trip id="19" depart="38.00" from="-1568" to="819"/>
    <trip id="20" depart="43.00" from="-1573" to="531"/>
    <trip id="21" depart="44.00" from="-1573" to="1690"/>
    <trip id="22" depart="44.00" from="-1104" to="1573"/>
    <trip id="23" depart="45.00" from="-1677" to="1085"/>
    <trip id="24" depart="45.00" from="-531" to="949"/>
    <trip id="25" depart="46.00" from="-1104" to="-275"/>
    <trip id="26" depart="47.00" from="-1573" to="1690"/>
    <trip id="27" depart="52.00" from="1222" to="-338"/>
    <trip id="28" depart="53.00" from="-939" to="1573"/>
    <trip id="29" depart="56.00" from="275" to="1677"/>
    <trip id="30" depart="57.00" from="275" to="1573"/>
    <trip id="31" depart="58.00" from="-1573" to="939"/>
    <trip id="32" depart="60.00" from="-1690" to="1677"/>
    <trip id="33" depart="63.00" from="-1568" to="-1222"/>
    <trip id="34" depart="64.00" from="-939" to="1573"/>
    <trip id="35" depart="72.00" from="-939" to="1690"/>
    <trip id="36" depart="73.00" from="-1690" to="1677"/>
    <trip id="37" depart="75.00" from="-1085" to="1677"/>
    <trip id="38" depart="76.00" from="-939" to="1104"/>
    <trip id="39" depart="78.00" from="-939" to="819"/>
    <trip id="40" depart="80.00" from="-531" to="1573"/>
    <trip id="42" depart="86.00" from="1222" to="1677"/>
    <trip id="43" depart="88.00" from="-1677" to="1568"/>
    <trip id="44" depart="90.00" from="-939" to="1085"/>
    <trip id="45" depart="91.00" from="-1104" to="1085"/>
    <trip id="46" depart="91.00" from="-1085" to="531"/>
    <trip id="47" depart="92.00" from="-939" to="1573"/>
    <trip id="48" depart="93.00" from="-939" to="819"/>
    <trip id="49" depart="100.00" from="275" to="819"/>
    <trip id="50" depart="101.00" from="1222" to="1677"/>
    <trip id="51" depart="101.00" from="-939" to="1085"/>
    <trip id="52" depart="102.00" from="-819" to="1573"/>
    <trip id="53" depart="103.00" from="-1085" to="1104"/>
    <trip id="54" depart="103.00" from="-939" to="-275"/>
    <trip id="55" depart="104.00" from="-1085" to="939"/>
    <trip id="56" depart="105.00" from="-1573" to="531"/>
    <trip id="57" depart="109.00" from="-1690" to="1104"/>
    <trip id="58" depart="110.00" from="1222" to="819"/>
    <trip id="59" depart="117.00" from="-1573" to="531"/>
    <trip id="60" depart="122.00" from="-1085" to="1573"/>
    <trip id="61" depart="122.00" from="275" to="819"/>
    <trip id="62" depart="123.00" from="1222" to="1677"/>
    <trip id="63" depart="124.00" from="-1677" to="531"/>
    <trip id="64" depart="124.00" from="-1104" to="1568"/>
    <trip id="65" depart="126.00" from="-939" to="1104"/>
    <trip id="66" depart="127.00" from="-1104" to="531"/>
    <trip id="67" depart="128.00" from="-1568" to="-1222"/>
    <trip id="68" depart="131.00" from="1222" to="1104"/>
    <trip id="69" depart="133.00" from="-1085" to="531"/>
    <trip id="70" depart="138.00" from="-531" to="1104"/>
    <trip id="71" depart="140.00" from="-1104" to="-275"/>
    <trip id="72" depart="142.00" from="-819" to="1573"/>
    <trip id="73" depart="146.00" from="275" to="1573"/>
    <trip id="74" depart="147.00" from="-1690" to="819"/>
    <trip id="75" depart="150.00" from="-1690" to="1568"/>
    <trip id="76" depart="152.00" from="-1690" to="939"/>
    <trip id="77" depart="153.00" from="-1085" to="1104"/>
    <trip id="78" depart="160.00" from="-1677" to="1690"/>
    <trip id="79" depart="160.00" from="-531" to="939"/>
    <trip id="80" depart="163.00" from="-531" to="-275"/>
    <trip id="81" depart="166.00" from="-819" to="1690"/>
    <trip id="82" depart="172.00" from="533" to="939"/>
    <trip id="83" depart="172.00" from="-1677" to="531"/>
    <trip id="84" depart="174.00" from="-1085" to="1104"/>
    <trip id="85" depart="176.00" from="-1568" to="-275"/>
    <trip id="86" depart="176.00" from="-1085" to="531"/>
    <trip id="87" depart="176.00" from="-1690" to="1104"/>
    <trip id="88" depart="182.00" from="275" to="939"/>
    <trip id="89" depart="187.00" from="1222" to="939"/>
    <trip id="90" depart="188.00" from="-1690" to="1568"/>
    <trip id="91" depart="188.00" from="-531" to="-1222"/>
    <trip id="93" depart="191.00" from="-1085" to="-275"/>
    <trip id="94" depart="192.00" from="-1568" to="819"/>
    <trip id="95" depart="192.00" from="-1085" to="939"/>
    <trip id="96" depart="193.00" from="275" to="1104"/>
    <trip id="97" depart="194.00" from="-1677" to="819"/>
    <trip id="98" depart="195.00" from="-1573" to="939"/>
    <trip id="99" depart="197.00" from="-1573" to="1104"/>
    <trip id="100" depart="198.00" from="-1573" to="-275"/>
    <trip id="101" depart="207.00" from="275" to="1690"/>
    <trip id="102" depart="207.00" from="-1568" to="1573"/>
    <trip id="103" depart="208.00" from="-1104" to="1568"/>
    <trip id="104" depart="211.00" from="-531" to="1085"/>
    <trip id="105" depart="216.00" from="-1677" to="-1222"/>
    <trip id="106" depart="217.00" from="-939" to="1104"/>
    <trip id="107" depart="218.00" from="-937" to="1573"/>
    <trip id="108" depart="225.00" from="-939" to="531"/>
    <trip id="109" depart="226.00" from="-1104" to="531"/>
    <trip id="110" depart="227.00" from="275" to="1085"/>
    <trip id="111" depart="229.00" from="-1690" to="-275"/>
    <trip id="112" depart="229.00" from="-819" to="533"/>
    <trip id="113" depart="231.00" from="-819" to="1568"/>
    <trip id="114" depart="234.00" from="1222" to="939"/>
    <trip id="115" depart="235.00" from="-1085" to="-1222"/>
    <trip id="116" depart="240.00" from="-939" to="1085"/>
    <trip id="117" depart="241.00" from="1222" to="1085"/>
    <trip id="118" depart="244.00" from="-1568" to="1677"/>
    <trip id="119" depart="245.00" from="-1677" to="1085"/>
    <trip id="120" depart="246.00" from="-939" to="-275"/>
    <trip id="121" depart="251.00" from="1222" to="1104"/>
    <trip id="122" depart="251.00" from="-1677" to="1568"/>
    <trip id="123" depart="252.00" from="1222" to="939"/>
    <trip id="124" depart="253.00" from="-1677" to="-275"/>
    <trip id="125" depart="253.00" from="-1690" to="-275"/>
    <trip id="126" depart="254.00" from="-819" to="-275"/>
    <trip id="127" depart="254.00" from="-531" to="1085"/>
    <trip id="129" depart="259.00" from="-819" to="939"/>
    <trip id="130" depart="260.00" from="275" to="1085"/>
    <trip id="131" depart="261.00" from="-531" to="939"/>
    <trip id="132" depart="264.00" from="-531" to="939"/>
    <trip id="133" depart="266.00" from="-1677" to="531"/>
    <trip id="134" depart="269.00" from="-1104" to="1085"/>
    <trip id="135" depart="270.00" from="-531" to="819"/>
    <trip id="136" depart="271.00" from="-1573" to="1568"/>
    <trip id="137" depart="279.00" from="-1573" to="-275"/>
    <trip id="138" depart="279.00" from="1222" to="1104"/>
    <trip id="139" depart="279.00" from="1222" to="1104"/>
    <trip id="140" depart="282.00" from="-1568" to="819"/>
    <trip id="141" depart="283.00" from="-1104" to="819"/>
    <trip id="142" depart="285.00" from="-939" to="531"/>
    <trip id="143" depart="285.00" from="275" to="1690"/>
    <trip id="144" depart="285.00" from="-1568" to="531"/>
    <trip id="145" depart="290.00" from="-819" to="1677"/>
    <trip id="146" depart="294.00" from="-531" to="819"/>
    <trip id="147" depart="294.00" from="-1573" to="531"/>
    <trip id="148" depart="296.00" from="-1085" to="1104"/>
    <trip id="149" depart="299.00" from="1222" to="1085"/>
    <trip id="150" depart="299.00" from="-819" to="-1222"/>
    <trip id="151" depart="302.00" from="275" to="1104"/>
    <trip id="152" depart="302.00" from="1222" to="1690"/>
    <trip id="153" depart="303.00" from="-1573" to="531"/>
    <trip id="154" depart="304.00" from="1222" to="1690"/>
    <trip id="155" depart="307.00" from="-1677" to="-1222"/>
    <trip id="156" depart="309.00" from="-819" to="-275"/>
    <trip id="157" depart="310.00" from="-1568" to="1690"/>
    <trip id="158" depart="311.00" from="-1102" to="1677"/>
    <trip id="159" depart="312.00" from="-531" to="1677"/>
    <trip id="160" depart="313.00" from="-1104" to="-275"/>
    <trip id="161" depart="316.00" from="275" to="819"/>
    <trip id="162" depart="321.00" from="-1104" to="1690"/>
    <trip id="163" depart="322.00" from="1222" to="531"/>
    <trip id="164" depart="323.00" from="-1568" to="1677"/>
    <trip id="165" depart="326.00" from="275" to="1677"/>
    <trip id="166" depart="329.00" from="-819" to="1568"/>
    <trip id="167" depart="330.00" from="1222" to="1085"/>
    <trip id="168" depart="331.00" from="-939" to="819"/>
    <trip id="169" depart="332.00" from="-939" to="1677"/>
    <trip id="170" depart="333.00" from="-819" to="1573"/>
    <trip id="171" depart="336.00" from="-531" to="1573"/>
    <trip id="172" depart="341.00" from="-1568" to="1085"/>
    <trip id="173" depart="343.00" from="-1690" to="-1222"/>
    <trip id="174" depart="346.00" from="-1568" to="819"/>
    <trip id="175" depart="347.00" from="275" to="1104"/>
    <trip id="176" depart="351.00" from="-1085" to="1677"/>
    <trip id="177" depart="351.00" from="-531" to="-1222"/>
    <trip id="178" depart="352.00" from="-937" to="1690"/>
    <trip id="179" depart="354.00" from="-939" to="1573"/>
    <trip id="180" depart="356.00" from="-939" to="531"/>
    <trip id="181" depart="357.00" from="-819" to="1690"/>
    <trip id="182" depart="361.00" from="275" to="1568"/>
    <trip id="183" depart="361.00" from="-1677" to="939"/>
    <trip id="184" depart="363.00" from="-531" to="1573"/>
    <trip id="185" depart="363.00" from="-1568" to="-1089"/>
    <trip id="186" depart="367.00" from="-1104" to="-1222"/>
    <trip id="187" depart="368.00" from="1222" to="1085"/>
    <trip id="188" depart="371.00" from="-1690" to="1677"/>
    <trip id="189" depart="372.00" from="-939" to="1573"/>
    <trip id="190" depart="373.00" from="-1568" to="1677"/>
    <trip id="191" depart="378.00" from="-1104" to="819"/>
    <trip id="192" depart="382.00" from="-939" to="1690"/>
    <trip id="193" depart="383.00" from="-1677" to="531"/>
    <trip id="194" depart="384.00" from="275" to="1573"/>
    <trip id="195" depart="386.00" from="1222" to="819"/>
    <trip id="196" depart="386.00" from="275" to="939"/>
    <trip id="197" depart="386.00" from="-1568" to="-1222"/>
    <trip id="198" depart="389.00" from="-1085" to="1573"/>
    <trip id="199" depart="391.00" from="-939" to="-1222"/>
    <trip id="200" depart="392.00" from="-1690" to="939"/>
    <trip id="201" depart="393.00" from="275" to="1573"/>
    <trip id="202" depart="394.00" from="-1085" to="531"/>
    <trip id="203" depart="398.00" from="-819" to="1568"/>
    <trip id="204" depart="399.00" from="1222" to="531"/>
    <trip id="205" depart="403.00" from="-1085" to="1104"/>
    <trip id="206" depart="408.00" from="1222" to="1690"/>
    <trip id="207" depart="409.00" from="-1573" to="-275"/>
    <trip id="208" depart="411.00" from="-939" to="1104"/>
    <trip id="209" depart="412.00" from="-531" to="-275"/>
    <trip id="210" depart="412.00" from="-1573" to="1568"/>
    <trip id="211" depart="412.00" from="-1677" to="-1222"/>
    <trip id="212" depart="415.00" from="-1573" to="939"/>
    <trip id="213" depart="415.00" from="1222" to="1085"/>
    <trip id="214" depart="416.00" from="275" to="939"/>
    <trip id="215" depart="416.00" from="-819" to="-275"/>
    <trip id="216" depart="416.00" from="-1568" to="1573"/>
    <trip id="217" depart="417.00" from="-1085" to="-275"/>
    <trip id="218" depart="417.00" from="-819" to="-1222"/>
    <trip id="219" depart="418.00" from="1222" to="1690"/>
    <trip id="220" depart="419.00" from="-1568" to="1573"/>
    <trip id="221" depart="421.00" from="-531" to="1102"/>
    <trip id="222" depart="427.00" from="-939" to="-1222"/>
    <trip id="223" depart="429.00" from="-1573" to="1677"/>
    <trip id="225" depart="430.00" from="-1573" to="1568"/>
    <trip id="226" depart="431.00" from="-1690" to="-275"/>
    <trip id="227" depart="436.00" from="1222" to="1085"/>
    <trip id="228" depart="437.00" from="-1104" to="1690"/>
    <trip id="229" depart="437.00" from="1222" to="1690"/>
    <trip id="230" depart="438.00" from="-1677" to="-275"/>
    <trip id="231" depart="443.00" from="-1085" to="1677"/>
    <trip id="232" depart="444.00" from="-1568" to="1104"/>
    <trip id="233" depart="444.00" from="-819" to="1104"/>
    <trip id="234" depart="444.00" from="-1573" to="1690"/>
    <trip id="235" depart="447.00" from="275" to="1677"/>
    <trip id="236" depart="448.00" from="-1677" to="1573"/>
    <trip id="237" depart="449.00" from="-1690" to="1573"/>
    <trip id="238" depart="450.00" from="275" to="1690"/>
    <trip id="239" depart="451.00" from="-1573" to="1677"/>
    <trip id="240" depart="452.00" from="-531" to="1573"/>
    <trip id="241" depart="453.00" from="-1677" to="-275"/>
    <trip id="242" depart="457.00" from="-1690" to="1104"/>
    <trip id="243" depart="462.00" from="-1104" to="-275"/>
    <trip id="244" depart="463.00" from="275" to="1568"/>
    <trip id="245" depart="464.00" from="-1677" to="819"/>
    <trip id="246" depart="466.00" from="-939" to="1573"/>
    <trip id="247" depart="470.00" from="-1573" to="531"/>
    <trip id="248" depart="471.00" from="275" to="531"/>
    <trip id="249" depart="472.00" from="275" to="531"/>
    <trip id="250" depart="473.00" from="-1104" to="-275"/>
    <trip id="251" depart="477.00" from="275" to="1568"/>
    <trip id="252" depart="477.00" from="275" to="1690"/>
    <trip id="253" depart="479.00" from="-1104" to="-275"/>
    <trip id="254" depart="480.00" from="-1104" to="939"/>
    <trip id="255" depart="486.00" from="275" to="539"/>
    <trip id="256" depart="488.00" from="-1677" to="1085"/>
    <trip id="257" depart="490.00" from="-1085" to="531"/>
    <trip id="258" depart="490.00" from="-1104" to="531"/>
    <trip id="259" depart="491.00" from="-1104" to="1690"/>
    <trip id="260" depart="491.00" from="-819" to="-275"/>
    <trip id="261" depart="491.00" from="-1573" to="531"/>
    <trip id="262" depart="494.00" from="-1104" to="819"/>
    <trip id="263" depart="495.00" from="-1690" to="-1222"/>
    <trip id="264" depart="496.00" from="-1108" to="1573"/>
    <trip id="265" depart="497.00" from="-1568" to="-275"/>
    <trip id="266" depart="498.00" from="-819" to="1104"/>
    <trip id="267" depart="499.00" from="-1104" to="531"/>
    <trip id="268" depart="505.00" from="-1085" to="1573"/>
    <trip id="269" depart="506.00" from="-819" to="-1222"/>
    <trip id="270" depart="506.00" from="1222" to="1568"/>
    <trip id="271" depart="507.00" from="-1677" to="1085"/>
    <trip id="272" depart="508.00" from="275" to="1690"/>
    <trip id="273" depart="516.00" from="-1573" to="1568"/>
    <trip id="274" depart="517.00" from="-1573" to="-275"/>
    <trip id="275" depart="518.00" from="-1573" to="1104"/>
    <trip id="276" depart="519.00" from="-1573" to="1690"/>
    <trip id="277" depart="521.00" from="-819" to="1677"/>
    <trip id="278" depart="521.00" from="-531" to="1568"/>
    <trip id="279" depart="526.00" from="1222" to="819"/>
    <trip id="280" depart="527.00" from="275" to="819"/>
    <trip id="281" depart="532.00" from="-1690" to="1568"/>
    <trip id="282" depart="535.00" from="1222" to="1085"/>
    <trip id="283" depart="536.00" from="-1104" to="531"/>
    <trip id="284" depart="538.00" from="-1568" to="1085"/>
    <trip id="285" depart="541.00" from="-1573" to="-275"/>
    <trip id="286" depart="546.00" from="275" to="1568"/>
    <trip id="287" depart="548.00" from="-1677" to="939"/>
    <trip id="288" depart="549.00" from="-531" to="819"/>
    <trip id="289" depart="551.00" from="-1573" to="531"/>
    <trip id="290" depart="551.00" from="1222" to="1104"/>
    <trip id="291" depart="552.00" from="1222" to="1677"/>
    <trip id="293" depart="557.00" from="-531" to="1085"/>
    <trip id="294" depart="561.00" from="-1104" to="-275"/>
    <trip id="295" depart="561.00" from="-531" to="819"/>
    <trip id="296" depart="566.00" from="275" to="1677"/>
    <trip id="297" depart="569.00" from="1222" to="819"/>
    <trip id="298" depart="570.00" from="-819" to="531"/>
    <trip id="299" depart="578.00" from="-819" to="1690"/>
    <trip id="300" depart="579.00" from="-1568" to="1677"/>
    <trip id="301" depart="581.00" from="-1104" to="819"/>
    <trip id="302" depart="583.00" from="-1104" to="1085"/>
    <trip id="303" depart="583.00" from="-1568" to="1690"/>
    <trip id="304" depart="583.00" from="-1573" to="1690"/>
    <trip id="305" depart="585.00" from="-819" to="1690"/>
    <trip id="306" depart="587.00" from="275" to="1690"/>
    <trip id="307" depart="587.00" from="-819" to="1104"/>
    <trip id="308" depart="587.00" from="-1085" to="939"/>
    <trip id="309" depart="591.00" from="-1568" to="1690"/>
    <trip id="310" depart="592.00" from="-1085" to="-1222"/>
    <trip id="311" depart="595.00" from="-1104" to="-275"/>
    <trip id="312" depart="597.00" from="-1104" to="-1222"/>
    <trip id="313" depart="598.00" from="-1104" to="-275"/>
    <trip id="314" depart="599.00" from="-1085" to="1677"/>
    <trip id="315" depart="602.00" from="-1573" to="1085"/>
    <trip id="316" depart="605.00" from="-1573" to="-275"/>
    <trip id="317" depart="605.00" from="-1085" to="1568"/>
    <trip id="318" depart="606.00" from="1222" to="1085"/>
    <trip id="319" depart="608.00" from="1222" to="939"/>
    <trip id="320" depart="611.00" from="-1104" to="-1222"/>
    <trip id="321" depart="613.00" from="275" to="1690"/>
    <trip id="322" depart="615.00" from="-1573" to="1690"/>
    <trip id="323" depart="616.00" from="-939" to="1677"/>
    <trip id="324" depart="617.00" from="-819" to="-275"/>
    <trip id="325" depart="623.00" from="-1104" to="1568"/>
    <trip id="326" depart="623.00" from="1222" to="819"/>
    <trip id="328" depart="628.00" from="-939" to="1085"/>
    <trip id="329" depart="629.00" from="-1677" to="1568"/>
    <trip id="330" depart="631.00" from="-1085" to="1568"/>
    <trip id="331" depart="635.00" from="-1690" to="819"/>
    <trip id="332" depart="635.00" from="275" to="1573"/>
    <trip id="333" depart="636.00" from="-939" to="1677"/>
    <trip id="334" depart="638.00" from="-819" to="1690"/>
    <trip id="335" depart="638.00" from="-1690" to="819"/>
    <trip id="336" depart="639.00" from="1222" to="1690"/>
    <trip id="337" depart="640.00" from="-1690" to="939"/>
    <trip id="338" depart="640.00" from="-1573" to="939"/>
    <trip id="339" depart="644.00" from="275" to="1568"/>
    <trip id="340" depart="646.00" from="-1568" to="-1222"/>
    <trip id="341" depart="646.00" from="-1677" to="-1222"/>
    <trip id="342" depart="647.00" from="-1573" to="531"/>
    <trip id="343" depart="648.00" from="-1573" to="819"/>
    <trip id="344" depart="650.00" from="-1677" to="531"/>
    <trip id="345" depart="653.00" from="-1085" to="1573"/>
    <trip id="346" depart="655.00" from="-1568" to="-1222"/>
    <trip id="347" depart="657.00" from="-1568" to="1677"/>
    <trip id="348" depart="657.00" from="-1104" to="819"/>
    <trip id="349" depart="657.00" from="1222" to="939"/>
    <trip id="350" depart="658.00" from="-819" to="1568"/>
    <trip id="352" depart="660.00" from="-939" to="819"/>
    <trip id="353" depart="663.00" from="-1568" to="1085"/>
    <trip id="354" depart="666.00" from="-1568" to="1085"/>
    <trip id="355" depart="667.00" from="-1573" to="819"/>
    <trip id="357" depart="671.00" from="-1104" to="939"/>
    <trip id="358" depart="673.00" from="-819" to="1573"/>
    <trip id="359" depart="676.00" from="-1104" to="-1222"/>
    <trip id="360" depart="682.00" from="-1104" to="939"/>
    <trip id="361" depart="683.00" from="-1690" to="1568"/>
    <trip id="362" depart="683.00" from="1092" to="1690"/>
    <trip id="363" depart="684.00" from="-1085" to="531"/>
    <trip id="364" depart="692.00" from="275" to="1677"/>
    <trip id="365" depart="693.00" from="1222" to="1104"/>
    <trip id="366" depart="694.00" from="-1568" to="1677"/>
    <trip id="367" depart="697.00" from="-1677" to="819"/>
    <trip id="368" depart="699.00" from="-1690" to="330"/>
    <trip id="369" depart="700.00" from="275" to="1568"/>
    <trip id="370" depart="701.00" from="-819" to="1690"/>
    <trip id="371" depart="702.00" from="-939" to="1690"/>
    <trip id="372" depart="705.00" from="-939" to="-275"/>
    <trip id="373" depart="708.00" from="-531" to="939"/>
    <trip id="374" depart="708.00" from="-531" to="939"/>
    <trip id="375" depart="712.00" from="-1677" to="-1222"/>
    <trip id="376" depart="720.00" from="-1085" to="1573"/>
    <trip id="377" depart="724.00" from="-1690" to="1568"/>
    <trip id="378" depart="727.00" from="-939" to="1677"/>
    <trip id="379" depart="728.00" from="275" to="1690"/>
    <trip id="380" depart="729.00" from="-1568" to="1573"/>
    <trip id="381" depart="731.00" from="-531" to="1677"/>
    <trip id="382" depart="732.00" from="-531" to="1573"/>
    <trip id="383" depart="734.00" from="275" to="1573"/>
    <trip id="384" depart="735.00" from="-1573" to="939"/>
    <trip id="385" depart="739.00" from="-531" to="-1222"/>
    <trip id="386" depart="741.00" from="-1677" to="939"/>
    <trip id="387" depart="743.00" from="-1690" to="-275"/>
    <trip id="388" depart="744.00" from="-939" to="1573"/>
    <trip id="389" depart="751.00" from="-1690" to="1677"/>
    <trip id="391" depart="754.00" from="-1677" to="531"/>
    <trip id="392" depart="756.00" from="-1104" to="1573"/>
    <trip id="393" depart="759.00" from="275" to="939"/>
    <trip id="394" depart="760.00" from="-1573" to="1085"/>
    <trip id="395" depart="760.00" from="-1085" to="-1222"/>
    <trip id="396" depart="761.00" from="-531" to="819"/>
    <trip id="397" depart="764.00" from="-1568" to="1677"/>
    <trip id="398" depart="765.00" from="-1104" to="-1222"/>
    <trip id="399" depart="768.00" from="-1568" to="-1222"/>
    <trip id="400" depart="769.00" from="-1573" to="1677"/>
    <trip id="401" depart="774.00" from="-1104" to="-275"/>
    <trip id="402" depart="775.00" from="1222" to="531"/>
    <trip id="403" depart="775.00" from="-1568" to="-1222"/>
    <trip id="404" depart="776.00" from="275" to="939"/>
    <trip id="405" depart="777.00" from="-819" to="1677"/>
    <trip id="406" depart="778.00" from="-1677" to="-275"/>
    <trip id="407" depart="781.00" from="-819" to="1104"/>
    <trip id="409" depart="786.00" from="-1104" to="939"/>
    <trip id="410" depart="787.00" from="275" to="1568"/>
    <trip id="411" depart="787.00" from="-1677" to="-1222"/>
    <trip id="412" depart="789.00" from="-939" to="1573"/>
    <trip id="413" depart="789.00" from="1222" to="1690"/>
    <trip id="414" depart="792.00" from="-1085" to="1677"/>
    <trip id="415" depart="793.00" from="-531" to="1677"/>
    <trip id="416" depart="793.00" from="-1573" to="939"/>
    <trip id="417" depart="793.00" from="-1573" to="1104"/>
    <trip id="418" depart="800.00" from="1222" to="1568"/>
    <trip id="419" depart="802.00" from="1222" to="1104"/>
    <trip id="420" depart="805.00" from="-1104" to="1573"/>
    <trip id="421" depart="805.00" from="-531" to="1568"/>
    <trip id="422" depart="805.00" from="1222" to="939"/>
    <trip id="423" depart="808.00" from="-939" to="1677"/>
    <trip id="424" depart="810.00" from="-1690" to="819"/>
    <trip id="426" depart="815.00" from="-1573" to="1568"/>
    <trip id="427" depart="817.00" from="-1677" to="1085"/>
    <trip id="428" depart="818.00" from="-1104" to="1568"/>
    <trip id="429" depart="821.00" from="-819" to="939"/>
    <trip id="430" depart="825.00" from="-1085" to="939"/>
    <trip id="431" depart="825.00" from="-531" to="-1222"/>
    <trip id="432" depart="826.00" from="-1085" to="1573"/>
    <trip id="433" depart="831.00" from="-1690" to="1677"/>
    <trip id="434" depart="831.00" from="-939" to="1104"/>
    <trip id="435" depart="832.00" from="-939" to="819"/>
    <trip id="436" depart="836.00" from="-819" to="-1222"/>
    <trip id="437" depart="837.00" from="-1085" to="-1222"/>
    <trip id="438" depart="843.00" from="-1568" to="541"/>
    <trip id="439" depart="846.00" from="-819" to="1568"/>
    <trip id="440" depart="846.00" from="-1573" to="-275"/>
    <trip id="441" depart="848.00" from="-1085" to="-275"/>
    <trip id="442" depart="851.00" from="-1690" to="1104"/>
    <trip id="443" depart="853.00" from="-1573" to="1690"/>
    <trip id="444" depart="854.00" from="275" to="819"/>
    <trip id="445" depart="857.00" from="-1690" to="1104"/>
    <trip id="446" depart="859.00" from="-1085" to="1104"/>
    <trip id="447" depart="859.00" from="-1573" to="1568"/>
    <trip id="448" depart="859.00" from="-1568" to="1104"/>
    <trip id="449" depart="864.00" from="-531" to="939"/>
    <trip id="450" depart="865.00" from="-939" to="819"/>
    <trip id="451" depart="865.00" from="-819" to="1104"/>
    <trip id="452" depart="866.00" from="-1568" to="-275"/>
    <trip id="454" depart="868.00" from="-1104" to="1568"/>
    <trip id="455" depart="871.00" from="-1690" to="1677"/>
    <trip id="456" depart="871.00" from="-1573" to="1690"/>
    <trip id="457" depart="871.00" from="275" to="939"/>
    <trip id="458" depart="875.00" from="-1104" to="-275"/>
    <trip id="459" depart="883.00" from="-819" to="-275"/>
    <trip id="460" depart="884.00" from="-1573" to="1085"/>
    <trip id="461" depart="885.00" from="275" to="939"/>
    <trip id="462" depart="886.00" from="-1085" to="1573"/>
    <trip id="463" depart="886.00" from="-1085" to="531"/>
    <trip id="464" depart="887.00" from="-939" to="1690"/>
    <trip id="465" depart="889.00" from="-1085" to="-275"/>
    <trip id="466" depart="889.00" from="-1573" to="1690"/>
    <trip id="467" depart="892.00" from="1222" to="1690"/>
    <trip id="468" depart="893.00" from="-1573" to="1568"/>
    <trip id="469" depart="894.00" from="-1568" to="-485"/>
    <trip id="470" depart="894.00" from="-531" to="819"/>
    <trip id="471" depart="896.00" from="-1104" to="1568"/>
    <trip id="472" depart="897.00" from="-531" to="1104"/>
    <trip id="473" depart="900.00" from="-1104" to="-1222"/>
    <trip id="474" depart="901.00" from="-819" to="-1222"/>
    <trip id="475" depart="904.00" from="275" to="939"/>
    <trip id="476" depart="904.00" from="-1690" to="1677"/>
    <trip id="478" depart="905.00" from="-1690" to="1573"/>
    <trip id="479" depart="910.00" from="-1104" to="1085"/>
    <trip id="480" depart="910.00" from="-1677" to="1690"/>
    <trip id="481" depart="912.00" from="-939" to="1104"/>
    <trip id="482" depart="917.00" from="275" to="939"/>
    <trip id="483" depart="918.00" from="-1690" to="819"/>
    <trip id="484" depart="921.00" from="-819" to="-1222"/>
    <trip id="485" depart="922.00" from="-1085" to="1677"/>
    <trip id="486" depart="929.00" from="-939" to="531"/>
    <trip id="487" depart="931.00" from="-1085" to="939"/>
    <trip id="488" depart="933.00" from="1222" to="1677"/>
    <trip id="489" depart="934.00" from="-1573" to="1085"/>
    <trip id="490" depart="935.00" from="-1690" to="1568"/>
    <trip id="491" depart="938.00" from="-819" to="531"/>
    <trip id="492" depart="940.00" from="-1677" to="-275"/>
    <trip id="493" depart="943.00" from="-1677" to="-275"/>
    <trip id="494" depart="949.00" from="-1690" to="1568"/>
    <trip id="495" depart="951.00" from="-1677" to="1573"/>