<?xml version="1.0" encoding="UTF-8"?>

<!-- generated on 2025-03-09 19:48:56.745449 by randomTrips.py v1_19_0+1770-8bb5c24c187
<configuration>
    <net-file value="random_subnetwork_2.net.xml"/>
    <output-trip-file value="random_subnetwork_2_medium.trips.xml"/>
    <fringe-factor value="100"/>
    <remove-loops value="True"/>
    <validate value="True"/>
    <period value="1.9339"/>
    <binomial value="4"/>
</configuration>
-->

<!-- generated on 2025-03-09 19:48:56 by Eclipse SUMO duarouter Version v1_19_0+1770-8bb5c24c187
<configuration xmlns:xsi="http://www.w3.org/2001/XMLSchema-instance" xsi:noNamespaceSchemaLocation="http://sumo.dlr.de/xsd/duarouterConfiguration.xsd">

    <input>
        <net-file value="random_subnetwork_2.net.xml"/>
        <route-files value="random_subnetwork_2_medium.trips.xml"/>
    </input>

    <output>
        <output-file value="random_subnetwork_2_medium.trips.xml.tmp"/>
        <alternatives-output value="NUL"/>
        <write-trips value="true"/>
    </output>

    <processing>
        <remove-loops value="true"/>
    </processing>

    <time>
        <begin value="0.0"/>
        <end value="3600.0"/>
    </time>

    <report>
        <no-warnings value="true"/>
        <ignore-errors value="true"/>
        <no-step-log value="true"/>
    </report>

</configuration>
-->

<routes xmlns:xsi="http://www.w3.org/2001/XMLSchema-instance" xsi:noNamespaceSchemaLocation="http://sumo.dlr.de/xsd/routes_file.xsd">
    <trip id="0" depart="0.00" from="-27" to="1222"/>
    <trip id="3" depart="3.00" from="-789" to="275"/>
    <trip id="4" depart="4.00" from="-1926" to="497"/>
    <trip id="6" depart="8.00" from="-2054" to="-1439"/>
    <trip id="7" depart="13.00" from="-27" to="1222"/>
    <trip id="9" depart="19.00" from="-270" to="678"/>
    <trip id="10" depart="20.00" from="-678" to="275"/>
    <trip id="15" depart="27.00" from="-275" to="27"/>
    <trip id="17" depart="31.00" from="-497" to="1222"/>
    <trip id="20" depart="35.00" from="-270" to="1926"/>
    <trip id="21" depart="38.00" from="789" to="497"/>
    <trip id="22" depart="40.00" from="-270" to="678"/>
    <trip id="23" depart="44.00" from="-301" to="27"/>
    <trip id="26" depart="50.00" from="-275" to="678"/>
    <trip id="29" depart="54.00" from="-1926" to="270"/>
    <trip id="30" depart="56.00" from="-270" to="1222"/>
    <trip id="31" depart="57.00" from="-678" to="270"/>
    <trip id="32" depart="58.00" from="-1222" to="497"/>
    <trip id="33" depart="59.00" from="-27" to="497"/>
    <trip id="34" depart="61.00" from="-678" to="497"/>
    <trip id="35" depart="63.00" from="-678" to="1926"/>
    <trip id="38" depart="69.00" from="1439" to="-1573"/>
    <trip id="39" depart="70.00" from="-270" to="295"/>
    <trip id="41" depart="73.00" from="-497" to="1926"/>
    <trip id="42" depart="75.00" from="-270" to="678"/>
    <trip id="44" depart="79.00" from="-275" to="270"/>
    <trip id="46" depart="81.00" from="-270" to="270"/>
    <trip id="47" depart="83.00" from="-678" to="301"/>
    <trip id="50" depart="90.00" from="-27" to="1222"/>
    <trip id="51" depart="91.00" from="-270" to="27"/>
    <trip id="52" depart="94.00" from="-27" to="301"/>
    <trip id="53" depart="96.00" from="-27" to="275"/>
    <trip id="56" depart="99.00" from="-270" to="1222"/>
    <trip id="57" depart="100.00" from="-1222" to="27"/>
    <trip id="60" depart="105.00" from="-1222" to="1926"/>
    <trip id="61" depart="106.00" from="-497" to="270"/>
    <trip id="62" depart="107.00" from="-678" to="497"/>
    <trip id="63" depart="107.00" from="-154" to="301"/>
    <trip id="67" depart="116.00" from="1439" to="-1102"/>
    <trip id="69" depart="120.00" from="-2054" to="-1439"/>
    <trip id="71" depart="123.00" from="289" to="1222"/>
    <trip id="75" depart="128.00" from="-678" to="270"/>
    <trip id="77" depart="137.00" from="-1926" to="1926"/>
    <trip id="78" depart="138.00" from="-497" to="275"/>
    <trip id="81" depart="141.00" from="-678" to="27"/>
    <trip id="82" depart="143.00" from="-27" to="1926"/>
    <trip id="84" depart="151.00" from="303" to="678"/>
    <trip id="86" depart="161.00" from="-678" to="275"/>
    <trip id="87" depart="163.00" from="-275" to="270"/>
    <trip id="88" depart="168.00" from="-1222" to="270"/>
    <trip id="89" depart="170.00" from="-497" to="497"/>
    <trip id="90" depart="171.00" from="-678" to="1926"/>
    <trip id="92" depart="174.00" from="-678" to="497"/>
    <trip id="93" depart="180.00" from="-301" to="27"/>
    <trip id="94" depart="185.00" from="-27" to="301"/>
    <trip id="95" depart="188.00" from="1439" to="-1439"/>
    <trip id="97" depart="192.00" from="-2054" to="-1102"/>
    <trip id="99" depart="195.00" from="1102" to="-1439"/>
    <trip id="102" depart="199.00" from="-497" to="27"/>
    <trip id="103" depart="200.00" from="1102" to="2054"/>
    <trip id="104" depart="201.00" from="-678" to="1222"/>
    <trip id="106" depart="203.00" from="1102" to="-1439"/>
    <trip id="107" depart="204.00" from="-1222" to="301"/>
    <trip id="108" depart="205.00" from="-678" to="27"/>
    <trip id="109" depart="207.00" from="-275" to="678"/>
    <trip id="110" depart="207.00" from="-678" to="497"/>
    <trip id="112" depart="209.00" from="-1222" to="270"/>
    <trip id="113" depart="209.00" from="-27" to="270"/>
    <trip id="114" depart="211.00" from="-497" to="497"/>
    <trip id="115" depart="213.00" from="-270" to="275"/>
    <trip id="116" depart="214.00" from="1102" to="-1439"/>
    <trip id="117" depart="215.00" from="-678" to="301"/>
    <trip id="118" depart="216.00" from="-27" to="275"/>
    <trip id="122" depart="223.00" from="-678" to="1222"/>
    <trip id="124" depart="227.00" from="-270" to="154"/>
    <trip id="125" depart="228.00" from="-270" to="270"/>
    <trip id="126" depart="229.00" from="-27" to="1222"/>
    <trip id="128" depart="231.00" from="1102" to="-1102"/>
    <trip id="130" depart="233.00" from="-1222" to="1926"/>
    <trip id="132" depart="236.00" from="-275" to="497"/>
    <trip id="133" depart="242.00" from="-270" to="1926"/>
    <trip id="134" depart="243.00" from="-275" to="1926"/>
    <trip id="135" depart="243.00" from="1102" to="-1102"/>
    <trip id="136" depart="247.00" from="-1926" to="497"/>
    <trip id="137" depart="251.00" from="-1926" to="275"/>
    <trip id="138" depart="260.00" from="1102" to="-1439"/>
    <trip id="139" depart="261.00" from="-27" to="301"/>
    <trip id="141" depart="272.00" from="-1222" to="27"/>
    <trip id="143" depart="276.00" from="-1222" to="1222"/>
    <trip id="144" depart="277.00" from="-27" to="1926"/>
    <trip id="145" depart="277.00" from="-270" to="301"/>
    <trip id="147" depart="278.00" from="-275" to="1222"/>
    <trip id="148" depart="280.00" from="1439" to="-1102"/>
    <trip id="149" depart="282.00" from="-678" to="1926"/>
    <trip id="150" depart="284.00" from="-301" to="301"/>
    <trip id="152" depart="286.00" from="-2054" to="-1102"/>
    <trip id="153" depart="289.00" from="-270" to="497"/>
    <trip id="154" depart="292.00" from="-301" to="497"/>
    <trip id="155" depart="293.00" from="-497" to="1926"/>
    <trip id="157" depart="295.00" from="-497" to="1926"/>
    <trip id="158" depart="297.00" from="-1222" to="301"/>
    <trip id="159" depart="300.00" from="-678" to="27"/>
    <trip id="160" depart="303.00" from="1102" to="2054"/>
    <trip id="161" depart="304.00" from="-497" to="497"/>
    <trip id="162" depart="304.00" from="-301" to="497"/>
    <trip id="163" depart="306.00" from="-2054" to="-1439"/>
    <trip id="164" depart="307.00" from="-301" to="1926"/>
    <trip id="165" depart="308.00" from="-27" to="789"/>
    <trip id="168" depart="314.00" from="-27" to="27"/>
    <trip id="169" depart="317.00" from="-1222" to="275"/>
    <trip id="173" depart="329.00" from="-275" to="497"/>
    <trip id="174" depart="332.00" from="-275" to="301"/>
    <trip id="175" depart="333.00" from="1439" to="2054"/>
    <trip id="176" depart="335.00" from="-1926" to="1926"/>
    <trip id="177" depart="341.00" from="-275" to="678"/>
    <trip id="178" depart="344.00" from="1439" to="-1439"/>
    <trip id="180" depart="346.00" from="-1926" to="1222"/>
    <trip id="182" depart="359.00" from="-270" to="275"/>
    <trip id="184" depart="362.00" from="-301" to="27"/>
    <trip id="187" depart="372.00" from="-497" to="-3"/>
    <trip id="188" depart="374.00" from="-497" to="275"/>
    <trip id="189" depart="374.00" from="-1926" to="1926"/>
    <trip id="191" depart="380.00" from="-275" to="275"/>
    <trip id="194" depart="382.00" from="-275" to="301"/>
    <trip id="195" depart="383.00" from="-275" to="301"/>
    <trip id="197" depart="385.00" from="1439" to="-1102"/>
    <trip id="198" depart="391.00" from="-1222" to="1926"/>
    <trip id="199" depart="393.00" from="1102" to="2054"/>
    <trip id="200" depart="394.00" from="-2054" to="-1439"/>
    <trip id="201" depart="394.00" from="-301" to="275"/>
    <trip id="203" depart="396.00" from="-275" to="1926"/>
    <trip id="205" depart="406.00" from="-678" to="-503"/>
    <trip id="207" depart="409.00" from="789" to="27"/>
    <trip id="209" depart="421.00" from="-1222" to="497"/>
    <trip id="214" depart="430.00" from="-270" to="270"/>
    <trip id="217" depart="433.00" from="-1222" to="678"/>
    <trip id="219" depart="435.00" from="-1926" to="1222"/>
    <trip id="220" depart="438.00" from="-270" to="497"/>
    <trip id="221" depart="439.00" from="-27" to="678"/>
    <trip id="222" depart="441.00" from="-301" to="301"/>
    <trip id="223" depart="442.00" from="-1926" to="275"/>
    <trip id="224" depart="443.00" from="-1222" to="1926"/>
    <trip id="229" depart="450.00" from="-27" to="678"/>
    <trip id="230" depart="456.00" from="-301" to="270"/>
    <trip id="231" depart="460.00" from="-295" to="27"/>
    <trip id="232" depart="463.00" from="-678" to="275"/>
    <trip id="233" depart="464.00" from="154" to="275"/>
    <trip id="236" depart="468.00" from="1439" to="-1439"/>
    <trip id="238" depart="474.00" from="-301" to="1222"/>
    <trip id="239" depart="476.00" from="-1926" to="497"/>
    <trip id="242" depart="488.00" from="-1222" to="301"/>
    <trip id="243" depart="490.00" from="-1926" to="301"/>
    <trip id="244" depart="491.00" from="-678" to="27"/>
    <trip id="246" depart="496.00" from="-27" to="1222"/>
    <trip id="249" depart="502.00" from="-275" to="1222"/>
    <trip id="250" depart="504.00" from="-678" to="301"/>
    <trip id="251" depart="505.00" from="-295" to="1222"/>
    <trip id="252" depart="508.00" from="-1926" to="301"/>
    <trip id="253" depart="508.00" from="1102" to="2054"/>
    <trip id="256" depart="514.00" from="-497" to="303"/>
    <trip id="257" depart="515.00" from="-270" to="301"/>
    <trip id="258" depart="515.00" from="-27" to="497"/>
    <trip id="260" depart="519.00" from="-1926" to="301"/>
    <trip id="261" depart="520.00" from="-301" to="270"/>
    <trip id="263" depart="524.00" from="-275" to="270"/>
    <trip id="264" depart="527.00" from="-1222" to="1222"/>
    <trip id="265" depart="527.00" from="-1222" to="301"/>
    <trip id="266" depart="529.00" from="-301" to="270"/>
    <trip id="267" depart="531.00" from="-497" to="301"/>
    <trip id="269" depart="533.00" from="-497" to="275"/>
    <trip id="270" depart="535.00" from="-678" to="1222"/>
    <trip id="271" depart="536.00" from="11" to="1222"/>
    <trip id="272" depart="536.00" from="-497" to="270"/>
    <trip id="273" depart="536.00" from="-275" to="1926"/>
    <trip id="274" depart="538.00" from="-301" to="275"/>
    <trip id="276" depart="542.00" from="-270" to="27"/>
    <trip id="277" depart="543.00" from="-275" to="15"/>
    <trip id="279" depart="547.00" from="-270" to="1222"/>
    <trip id="280" depart="548.00" from="-497" to="497"/>
    <trip id="281" depart="549.00" from="-275" to="1222"/>
    <trip id="282" depart="549.00" from="-503" to="275"/>
    <trip id="287" depart="557.00" from="-1926" to="275"/>
    <trip id="292" depart="563.00" from="-1222" to="497"/>
    <trip id="296" depart="566.00" from="-301" to="1222"/>
    <trip id="298" depart="572.00" from="3" to="27"/>
    <trip id="299" depart="573.00" from="-497" to="1222"/>
    <trip id="300" depart="574.00" from="-5" to="1222"/>
    <trip id="301" depart="576.00" from="-497" to="678"/>
    <trip id="304" depart="581.00" from="-301" to="678"/>
    <trip id="306" depart="587.00" from="-678" to="678"/>
    <trip id="307" depart="588.00" from="-301" to="678"/>
    <trip id="308" depart="591.00" from="-497" to="270"/>
    <trip id="309" depart="592.00" from="-2054" to="-1439"/>
    <trip id="310" depart="592.00" from="-270" to="301"/>
    <trip id="311" depart="594.00" from="-275" to="497"/>
    <trip id="314" depart="596.00" from="-301" to="270"/>
    <trip id="315" depart="597.00" from="1439" to="-1439"/>
    <trip id="317" depart="599.00" from="-301" to="497"/>
    <trip id="318" depart="601.00" from="-1926" to="1926"/>
    <trip id="320" depart="603.00" from="-301" to="3"/>
    <trip id="321" depart="605.00" from="-678" to="275"/>
    <trip id="322" depart="605.00" from="-27" to="27"/>
    <trip id="325" depart="610.00" from="-270" to="678"/>
    <trip id="327" depart="616.00" from="-27" to="27"/>
    <trip id="331" depart="621.00" from="1102" to="-1439"/>
    <trip id="333" depart="629.00" from="-1222" to="1926"/>
    <trip id="334" depart="634.00" from="-678" to="301"/>
    <trip id="337" depart="637.00" from="-275" to="275"/>
    <trip id="338" depart="639.00" from="-1222" to="678"/>
    <trip id="339" depart="644.00" from="-497" to="270"/>
    <trip id="340" depart="647.00" from="-1926" to="1222"/>
    <trip id="341" depart="649.00" from="-27" to="301"/>
    <trip id="343" depart="653.00" from="1102" to="-1439"/>
    <trip id="344" depart="656.00" from="-27" to="301"/>
    <trip id="345" depart="657.00" from="-301" to="270"/>
    <trip id="346" depart="658.00" from="-2054" to="2054"/>
    <trip id="347" depart="658.00" from="-27" to="497"/>
    <trip id="348" depart="660.00" from="-270" to="270"/>
    <trip id="350" depart="667.00" from="-480" to="275"/>
    <trip id="353" depart="671.00" from="-1926" to="1222"/>
    <trip id="354" depart="673.00" from="-275" to="1222"/>
    <trip id="355" depart="674.00" from="-497" to="497"/>
    <trip id="356" depart="675.00" from="-275" to="275"/>
    <trip id="362" depart="684.00" from="-497" to="497"/>
    <trip id="364" depart="688.00" from="-497" to="1222"/>
    <trip id="366" depart="691.00" from="-275" to="1222"/>
    <trip id="368" depart="693.00" from="-275" to="275"/>
    <trip id="369" depart="694.00" from="-270" to="270"/>
    <trip id="371" depart="696.00" from="-2054" to="2054"/>
    <trip id="372" depart="697.00" from="-678" to="1222"/>
    <trip id="374" depart="700.00" from="-301" to="480"/>
    <trip id="375" depart="701.00" from="-270" to="678"/>
    <trip id="377" depart="706.00" from="-270" to="270"/>
    <trip id="378" depart="714.00" from="-27" to="27"/>
    <trip id="379" depart="716.00" from="-1926" to="275"/>
    <trip id="380" depart="719.00" from="1102" to="-1439"/>
    <trip id="387" depart="741.00" from="-1222" to="275"/>
    <trip id="388" depart="742.00" from="-301" to="275"/>
    <trip id="389" depart="744.00" from="-1222" to="301"/>
    <trip id="390" depart="746.00" from="-497" to="27"/>
    <trip id="391" depart="748.00" from="1439" to="-1439"/>
    <trip id="393" depart="753.00" from="-1222" to="270"/>
    <trip id="394" depart="759.00" from="-1926" to="275"/>
    <trip id="401" depart="784.00" from="-497" to="1222"/>
    <trip id="403" depart="786.00" from="-1222" to="270"/>
    <trip id="405" depart="789.00" from="-678" to="275"/>
    <trip id="406" depart="789.00" from="-275" to="678"/>
    <trip id="408" depart="794.00" from="-275" to="270"/>
    <trip id="409" depart="794.00" from="-678" to="27"/>
    <trip id="411" depart="797.00" from="-275" to="1222"/>
    <trip id="412" depart="799.00" from="-1926" to="27"/>
    <trip id="413" depart="801.00" from="-1222" to="275"/>
    <trip id="414" depart="810.00" from="-1916" to="-1439"/>
    <trip id="415" depart="811.00" from="-2054" to="-1102"/>
    <trip id="416" depart="811.00" from="-270" to="678"/>
    <trip id="417" depart="815.00" from="-301" to="27"/>
    <trip id="420" depart="821.00" from="-1222" to="1926"/>
    <trip id="423" depart="827.00" from="-497" to="497"/>
    <trip id="426" depart="832.00" from="-275" to="270"/>
    <trip id="427" depart="835.00" from="-678" to="27"/>
    <trip id="429" depart="842.00" from="-266" to="1222"/>
    <trip id="431" depart="849.00" from="-1926" to="497"/>
    <trip id="432" depart="855.00" from="-1926" to="1222"/>
    <trip id="433" depart="858.00" from="-678" to="275"/>
    <trip id="436" depart="859.00" from="-270" to="301"/>
    <trip id="437" depart="859.00" from="-2054" to="-1439"/>
    <trip id="438" depart="862.00" from="-497" to="497"/>
    <trip id="441" depart="869.00" from="-270" to="1926"/>
    <trip id="443" depart="876.00" from="-1222" to="27"/>
    <trip id="444" depart="876.00" from="-262" to="275"/>
    <trip id="446" depart="881.00" from="-678" to="1222"/>
    <trip id="447" depart="882.00" from="-275" to="301"/>
    <trip id="449" depart="886.00" from="-497" to="1926"/>
    <trip id="451" depart="887.00" from="-678" to="27"/>
    <trip id="453" depart="889.00" from="-497" to="275"/>
    <trip id="455" depart="895.00" from="-1926" to="1926"/>
    <trip id="459" depart="901.00" from="-301" to="497"/>
    <trip id="462" depart="905.00" from="-1222" to="1926"/>
    <trip id="463" depart="906.00" from="-678" to="27"/>
    <trip id="464" depart="908.00" from="-497" to="1926"/>
    <trip id="467" depart="920.00" from="-270" to="678"/>
    <trip id="468" depart="923.00" from="-1222" to="301"/>
    <trip id="473" depart="929.00" from="-275" to="301"/>
    <trip id="474" depart="932.00" from="-678" to="1926"/>
    <trip id="476" depart="933.00" from="-27" to="678"/>
    <trip id="478" depart="936.00" from="-1222" to="678"/>
    <trip id="481" depart="939.00" from="-301" to="275"/>
    <trip id="485" depart="943.00" from="-27" to="497"/>
    <trip id="487" depart="948.00" from="-301" to="1222"/>
    <trip id="488" depart="949.00" from="-270" to="678"/>
    <trip id="489" depart="956.00" from="-27" to="497"/>
    <trip id="494" depart="969.00" from="-5" to="27"/>
    <trip id="497" depart="973.00" from="-678" to="678"/>
    <trip id="499" depart="982.00" from="-1926" to="1222"/>
    <trip id="501" depart="985.00" from="-301" to="1222"/>
    <trip id="502" depart="986.00" from="-1926" to="275"/>
    <trip id="505" depart="990.00" from="-27" to="1926"/>
    <trip id="506" depart="990.00" from="-270" to="27"/>
    <trip id="507" depart="993.00" from="-678" to="270"/>
    <trip id="508" depart="998.00" from="-1222" to="270"/>
    <trip id="511" depart="1001.00" from="-497" to="1926"/>
    <trip id="512" depart="1002.00" from="-1926" to="1926"/>
    <trip id="513" depart="1008.00" from="154" to="270"/>
    <trip id="514" depart="1010.00" from="-270" to="27"/>
    <trip id="515" depart="1012.00" from="-678" to="301"/>
    <trip id="516" depart="1013.00" from="-275" to="27"/>
    <trip id="519" depart="1020.00" from="-1926" to="1222"/>
    <trip id="520" depart="1020.00" from="-301" to="27"/>
    <trip id="521" depart="1022.00" from="-301" to="1926"/>
    <trip id="523" depart="1032.00" from="-275" to="1926"/>
    <trip id="524" depart="1033.00" from="-1926" to="-303"/>
    <trip id="526" depart="1041.00" from="-1926" to="301"/>
    <trip id="529" depart="1046.00" from="-1222" to="678"/>
    <trip id="530" depart="1047.00" from="-27" to="1926"/>
    <trip id="531" depart="1047.00" from="-497" to="497"/>
    <trip id="532" depart="1052.00" from="-1222" to="275"/>
    <trip id="534" depart="1059.00" from="-275" to="275"/>
    <trip id="535" depart="1061.00" from="1102" to="-1439"/>
    <trip id="536" depart="1062.00" from="-497" to="301"/>
    <trip id="537" depart="1062.00" from="-27" to="301"/>
    <trip id="540" depart="1065.00" from="289" to="301"/>
    <trip id="541" depart="1066.00" from="-275" to="497"/>
    <trip id="543" depart="1070.00" from="-1926" to="678"/>
    <trip id="545" depart="1076.00" from="1439" to="2054"/>
    <trip id="550" depart="1084.00" from="1102" to="-1439"/>
    <trip id="553" depart="1093.00" from="-1222" to="270"/>
    <trip id="555" depart="1100.00" from="295" to="678"/>
    <trip id="556" depart="1100.00" from="-275" to="301"/>
    <trip id="557" depart="1101.00" from="-270" to="515"/>
    <trip id="558" depart="1102.00" from="-497" to="301"/>
    <trip id="559" depart="1104.00" from="-301" to="1926"/>
    <trip id="560" depart="1105.00" from="-1222" to="301"/>
    <trip id="561" depart="1105.00" from="-1926" to="301"/>
    <trip id="562" depart="1107.00" from="-1926" to="275"/>
    <trip id="564" depart="1108.00" from="-27" to="301"/>
    <trip id="565" depart="1110.00" from="-275" to="301"/>
    <trip id="567" depart="1115.00" from="-1926" to="497"/>
    <trip id="569" depart="1116.00" from="-497" to="497"/>
    <trip id="571" depart="1120.00" from="-2054" to="-1439"/>
    <trip id="572" depart="1121.00" from="-270" to="301"/>
    <trip id="574" depart="1125.00" from="-678" to="678"/>
    <trip id="576" depart="1128.00" from="-678" to="497"/>
    <trip id="579" depart="1139.00" from="1439" to="-1102"/>
    <trip id="580" depart="1140.00" from="-275" to="27"/>
    <trip id="581" depart="1141.00" from="-678" to="678"/>
    <trip id="582" depart="1142.00" from="-275" to="1926"/>
    <trip id="583" depart="1143.00" from="-275" to="301"/>
    <trip id="585" depart="1145.00" from="-270" to="1222"/>
    <trip id="588" depart="1147.00" from="-270" to="270"/>
    <trip id="589" depart="1148.00" from="-497" to="1222"/>
    <trip id="590" depart="1149.00" from="-275" to="678"/>
    <trip id="591" depart="1152.00" from="-27" to="27"/>
    <trip id="592" depart="1152.00" from="-497" to="275"/>
    <trip id="593" depart="1154.00" from="1102" to="2054"/>
    <trip id="595" depart="1155.00" from="-27" to="275"/>
    <trip id="599" depart="1167.00" from="-27" to="1926"/>
    <trip id="600" depart="1169.00" from="-678" to="678"/>
    <trip id="601" depart="1175.00" from="-1222" to="275"/>
    <trip id="603" depart="1176.00" from="-275" to="1222"/>
    <trip id="607" depart="1183.00" from="-270" to="678"/>
    <trip id="609" depart="1187.00" from="-1222" to="1222"/>
    <trip id="610" depart="1189.00" from="-27" to="678"/>
    <trip id="611" depart="1189.00" from="-678" to="270"/>
    <trip id="612" depart="1191.00" from="-275" to="270"/>
    <trip id="613" depart="1192.00" from="-27" to="497"/>
    <trip id="614" depart="1195.00" from="-678" to="27"/>
    <trip id="615" depart="1197.00" from="-301" to="497"/>
    <trip id="616" depart="1197.00" from="-275" to="1926"/>
    <trip id="617" depart="1198.00" from="-1926" to="1222"/>
    <trip id="621" depart="1205.00" from="-678" to="301"/>
    <trip id="622" depart="1205.00" from="-1926" to="301"/>
    <trip id="623" depart="1206.00" from="-1926" to="1222"/>
    <trip id="624" depart="1206.00" from="-497" to="301"/>
    <trip id="628" depart="1214.00" from="1573" to="-1439"/>
    <trip id="629" depart="1214.00" from="-1926" to="301"/>
    <trip id="632" depart="1219.00" from="-270" to="275"/>
    <trip id="639" depart="1227.00" from="-1222" to="301"/>
    <trip id="640" depart="1229.00" from="-270" to="678"/>
    <trip id="641" depart="1231.00" from="-301" to="497"/>
    <trip id="642" depart="1232.00" from="-497" to="275"/>
    <trip id="643" depart="1236.00" from="-1222" to="497"/>
    <trip id="645" depart="1237.00" from="-27" to="1926"/>
    <trip id="646" depart="1238.00" from="-27" to="1926"/>
    <trip id="647" depart="1239.00" from="-27" to="-21"/>
    <trip id="648" depart="1242.00" from="-497" to="1926"/>
    <trip id="650" depart="1246.00" from="1102" to="-1439"/>
    <trip id="651" depart="1246.00" from="-678" to="27"/>
    <trip id="652" depart="1250.00" from="-497" to="497"/>
    <trip id="653" depart="1255.00" from="-2054" to="2054"/>
    <trip id="656" depart="1260.00" from="1102" to="-1102"/>
    <trip id="658" depart="1262.00" from="-678" to="678"/>
    <trip id="659" depart="1264.00" from="11" to="1926"/>
    <trip id="664" depart="1281.00" from="-1222" to="275"/>
    <trip id="665" depart="1283.00" from="-1926" to="27"/>
    <trip id="666" depart="1291.00" from="-270" to="678"/>
    <trip id="668" depart="1292.00" from="-497" to="503"/>
    <trip id="669" depart="1297.00" from="-1926" to="1926"/>
    <trip id="670" depart="1299.00" from="-1222" to="1926"/>
    <trip id="673" depart="1310.00" from="-1926" to="1222"/>
    <trip id="675" depart="1311.00" from="-27" to="275"/>
    <trip id="676" depart="1312.00" from="-1926" to="497"/>
    <trip id="677" depart="1315.00" from="-678" to="275"/>
    <trip id="678" depart="1316.00" from="-497" to="275"/>
    <trip id="681" depart="1320.00" from="-497" to="1926"/>
    <trip id="682" depart="1320.00" from="-1222" to="678"/>
    <trip id="683" depart="1322.00" from="1102" to="-1439"/>
    <trip id="685" depart="1328.00" from="-27" to="-266"/>
    <trip id="692" depart="1338.00" from="-1926" to="27"/>
    <trip id="696" depart="1346.00" from="-1222" to="270"/>
    <trip id="697" depart="1351.00" from="1102" to="2054"/>
    <trip id="698" depart="1352.00" from="-27" to="-518"/>
    <trip id="700" depart="1358.00" from="-270" to="678"/>
    <trip id="701" depart="1359.00" from="-1222" to="497"/>
    <trip id="705" depart="1364.00" from="-1926" to="270"/>
    <trip id="706" depart="1365.00" from="-1926" to="270"/>
    <trip id="707" depart="1367.00" from="-497" to="1926"/>
    <trip id="708" depart="1370.00" from="-270" to="301"/>
    <trip id="710" depart="1374.00" from="-27" to="678"/>
    <trip id="711" depart="1374.00" from="-678" to="275"/>
    <trip id="712" depart="1375.00" from="-497" to="275"/>
    <trip id="713" depart="1378.00" from="-27" to="27"/>
    <trip id="714" depart="1381.00" from="-27" to="275"/>
    <trip id="716" depart="1382.00" from="-301" to="27"/>
    <trip id="717" depart="1383.00" from="-678" to="270"/>
    <trip id="718" depart="1384.00" from="-1222" to="1926"/>
    <trip id="720" depart="1391.00" from="-497" to="497"/>
    <trip id="721" depart="1391.00" from="-1222" to="497"/>
    <trip id="726" depart="1401.00" from="-27" to="497"/>
    <trip id="727" depart="1409.00" from="-301" to="-518"/>
    <trip id="728" depart="1410.00" from="-301" to="-5"/>
    <trip id="730" depart="1411.00" from="-678" to="1222"/>
    <trip id="731" depart="1412.00" from="1102" to="-1102"/>
    <trip id="736" depart="1418.00" from="-1222" to="27"/>
    <trip id="737" depart="1422.00" from="-497" to="1222"/>
    <trip id="738" depart="1424.00" from="-275" to="497"/>
    <trip id="740" depart="1427.00" from="-678" to="270"/>
    <trip id="741" depart="1428.00" from="-1926" to="270"/>
    <trip id="742" depart="1432.00" from="-497" to="275"/>
    <trip id="743" depart="1432.00" from="-275" to="497"/>
    <trip id="744" depart="1434.00" from="-1222" to="497"/>
    <trip id="745" depart="1437.00" from="-275" to="678"/>
    <trip id="746" depart="1437.00" from="-27" to="678"/>
    <trip id="747" depart="1438.00" from="-301" to="1926"/>
    <trip id="749" depart="1447.00" from="1439" to="2054"/>
    <trip id="750" depart="1450.00" from="-2054" to="-1102"/>
    <trip id="751" depart="1451.00" from="-678" to="678"/>
    <trip id="752" depart="1451.00" from="-2054" to="-1439"/>
    <trip id="753" depart="1452.00" from="-275" to="301"/>
    <trip id="755" depart="1453.00" from="-27" to="301"/>
    <trip id="757" depart="1456.00" from="-1926" to="678"/>
    <trip id="758" depart="1457.00" from="-497" to="270"/>
    <trip id="759" depart="1458.00" from="-678" to="1222"/>
    <trip id="760" depart="1458.00" from="-270" to="301"/>
    <trip id="763" depart="1466.00" from="-301" to="275"/>
    <trip id="764" depart="1466.00" from="-275" to="497"/>
    <trip id="765" depart="1471.00" from="-2054" to="-1102"/>
    <trip id="767" depart="1476.00" from="-1222" to="1222"/>
    <trip id="771" depart="1480.00" from="-1926" to="678"/>
    <trip id="772" depart="1482.00" from="-301" to="-493"/>
    <trip id="773" depart="1483.00" from="-678" to="497"/>
    <trip id="774" depart="1485.00" from="-275" to="275"/>
    <trip id="775" depart="1485.00" from="-275" to="301"/>
    <trip id="777" depart="1491.00" from="-270" to="1926"/>
    <trip id="780" depart="1499.00" from="-27" to="497"/>
    <trip id="781" depart="1506.00" from="1439" to="-1102"/>
    <trip id="782" depart="1509.00" from="-678" to="678"/>
    <trip id="784" depart="1512.00" from="-1926" to="270"/>
    <trip id="785" depart="1513.00" from="-497" to="27"/>
    <trip id="786" depart="1513.00" from="1439" to="-1573"/>
    <trip id="787" depart="1514.00" from="-1222" to="27"/>
    <trip id="788" depart="1515.00" from="-301" to="27"/>
    <trip id="791" depart="1528.00" from="-1926" to="301"/>
    <trip id="792" depart="1530.00" from="-497" to="301"/>
    <trip id="793" depart="1531.00" from="-1926" to="678"/>
    <trip id="794" depart="1532.00" from="-301" to="1222"/>
    <trip id="795" depart="1534.00" from="-1926" to="1926"/>
    <trip id="796" depart="1534.00" from="-678" to="275"/>
    <trip id="797" depart="1535.00" from="-497" to="1222"/>
    <trip id="798" depart="1538.00" from="-1222" to="301"/>
    <trip id="799" depart="1539.00" from="-270" to="678"/>
    <trip id="800" depart="1542.00" from="-27" to="270"/>
    <trip id="804" depart="1546.00" from="-301" to="678"/>
    <trip id="805" depart="1553.00" from="-270" to="1926"/>
    <trip id="808" depart="1560.00" from="1102" to="-1102"/>
    <trip id="809" depart="1561.00" from="-301" to="497"/>
    <trip id="810" depart="1562.00" from="-678" to="1926"/>