<?xml version="1.0" encoding="UTF-8"?>

<!-- generated on 2025-03-09 19:55:45.022582 by randomTrips.py v1_19_0+1770-8bb5c24c187
<configuration>
    <net-file value="random_subnetwork_5.net.xml"/>
    <output-trip-file value="random_subnetwork_5_heavy.trips.xml"/>
    <fringe-factor value="100"/>
    <remove-loops value="True"/>
    <validate value="True"/>
    <period value="1.6635"/>
    <random-depart value="True"/>
    <binomial value="4"/>
</configuration>
-->

<!-- generated on 2025-03-09 19:55:44 by Eclipse SUMO duarouter Version v1_19_0+1770-8bb5c24c187
<configuration xmlns:xsi="http://www.w3.org/2001/XMLSchema-instance" xsi:noNamespaceSchemaLocation="http://sumo.dlr.de/xsd/duarouterConfiguration.xsd">

    <input>
        <net-file value="random_subnetwork_5.net.xml"/>
        <route-files value="random_subnetwork_5_heavy.trips.xml"/>
    </input>

    <output>
        <output-file value="random_subnetwork_5_heavy.trips.xml.tmp"/>
        <alternatives-output value="NUL"/>
        <write-trips value="true"/>
    </output>

    <processing>
        <remove-loops value="true"/>
    </processing>

    <time>
        <begin value="0.0"/>
        <end value="3600.0"/>
    </time>

    <report>
        <no-warnings value="true"/>
        <ignore-errors value="true"/>
        <no-step-log value="true"/>
    </report>

</configuration>
-->

<routes xmlns:xsi="http://www.w3.org/2001/XMLSchema-instance" xsi:noNamespaceSchemaLocation="http://sumo.dlr.de/xsd/routes_file.xsd">
    <trip id="0" depart="0.00" from="-1104" to="1102"/>
    <trip id="1" depart="1.00" from="-1677" to="-275"/>
    <trip id="2" depart="2.00" from="-1104" to="1690"/>
    <trip id="3" depart="3.00" from="-939" to="330"/>
    <trip id="4" depart="4.00" from="-1085" to="819"/>
    <trip id="5" depart="7.00" from="-1104" to="1102"/>
    <trip id="6" depart="8.00" from="-1104" to="330"/>
    <trip id="7" depart="13.00" from="-1568" to="1102"/>
    <trip id="8" depart="18.00" from="-1085" to="949"/>
    <trip id="9" depart="19.00" from="-1568" to="939"/>
    <trip id="10" depart="20.00" from="-819" to="1690"/>
    <trip id="11" depart="21.00" from="-1677" to="1568"/>
    <trip id="12" depart="25.00" from="-1568" to="-275"/>
    <trip id="13" depart="26.00" from="-939" to="939"/>
    <trip id="14" depart="26.00" from="-1677" to="-275"/>
    <trip id="15" depart="27.00" from="-1677" to="1677"/>
    <trip id="16" depart="30.00" from="-1104" to="1104"/>
    <trip id="17" depart="31.00" from="-531" to="1102"/>
    <trip id="18" depart="32.00" from="-1104" to="1690"/>
    <trip id="19" depart="32.00" from="275" to="1677"/>
    <trip id="20" depart="34.00" from="-1677" to="1568"/>
    <trip id="21" depart="35.00" from="-1677" to="1104"/>
    <trip id="22" depart="38.00" from="-949" to="819"/>
    <trip id="23" depart="40.00" from="-1568" to="939"/>
    <trip id="24" depart="44.00" from="-1690" to="1568"/>
    <trip id="25" depart="45.00" from="-1102" to="1677"/>
    <trip id="26" depart="45.00" from="-1089" to="1102"/>
    <trip id="27" depart="49.00" from="-1677" to="943"/>
    <trip id="28" depart="50.00" from="-1104" to="1102"/>
    <trip id="29" depart="52.00" from="-939" to="1102"/>
    <trip id="30" depart="53.00" from="-1102" to="833"/>
    <trip id="31" depart="56.00" from="-1677" to="1102"/>
    <trip id="32" depart="56.00" from="-819" to="1690"/>
    <trip id="33" depart="57.00" from="-1085" to="819"/>
    <trip id="34" depart="59.00" from="-1102" to="1104"/>
    <trip id="35" depart="60.00" from="-819" to="819"/>
    <trip id="36" depart="63.00" from="-819" to="1104"/>
    <trip id="37" depart="64.00" from="-939" to="819"/>
    <trip id="38" depart="66.00" from="-1102" to="1104"/>
    <trip id="39" depart="68.00" from="275" to="1085"/>
    <trip id="40" depart="69.00" from="-1677" to="531"/>
    <trip id="41" depart="71.00" from="275" to="1677"/>
    <trip id="42" depart="72.00" from="-531" to="1104"/>
    <trip id="43" depart="75.00" from="-1677" to="939"/>
    <trip id="44" depart="76.00" from="-1104" to="1568"/>
    <trip id="45" depart="79.00" from="-1690" to="1690"/>
    <trip id="46" depart="80.00" from="-1104" to="1568"/>
    <trip id="47" depart="81.00" from="-1677" to="1690"/>
    <trip id="48" depart="82.00" from="-819" to="531"/>
    <trip id="49" depart="83.00" from="-1677" to="1085"/>
    <trip id="50" depart="83.00" from="-1104" to="819"/>
    <trip id="51" depart="89.00" from="-1104" to="1102"/>
    <trip id="52" depart="90.00" from="-1104" to="1690"/>
    <trip id="53" depart="90.00" from="-1677" to="1677"/>
    <trip id="54" depart="93.00" from="-1568" to="531"/>
    <trip id="55" depart="95.00" from="-1568" to="1690"/>
    <trip id="56" depart="96.00" from="-531" to="-275"/>
    <trip id="57" depart="97.00" from="-531" to="1085"/>
    <trip id="58" depart="98.00" from="-1568" to="1102"/>
    <trip id="59" depart="99.00" from="-1085" to="1677"/>
    <trip id="60" depart="102.00" from="-1102" to="1085"/>
    <trip id="61" depart="104.00" from="-939" to="939"/>
    <trip id="62" depart="104.00" from="-1085" to="1104"/>
    <trip id="63" depart="105.00" from="541" to="1690"/>
    <trip id="64" depart="106.00" from="-819" to="819"/>
    <trip id="65" depart="106.00" from="275" to="531"/>
    <trip id="66" depart="108.00" from="275" to="1690"/>
    <trip id="67" depart="112.00" from="-939" to="1102"/>
    <trip id="68" depart="113.00" from="-939" to="1085"/>
    <trip id="69" depart="115.00" from="275" to="-275"/>
    <trip id="70" depart="117.00" from="-1104" to="1690"/>
    <trip id="71" depart="119.00" from="-1102" to="1085"/>
    <trip id="72" depart="122.00" from="-1102" to="1102"/>
    <trip id="73" depart="122.00" from="-1690" to="1102"/>
    <trip id="74" depart="123.00" from="-939" to="1568"/>
    <trip id="75" depart="125.00" from="275" to="1568"/>
    <trip id="76" depart="126.00" from="-531" to="-275"/>
    <trip id="77" depart="126.00" from="-1690" to="1102"/>
    <trip id="78" depart="126.00" from="-819" to="1690"/>
    <trip id="79" depart="131.00" from="-1085" to="1568"/>
    <trip id="80" depart="135.00" from="-1102" to="1104"/>
    <trip id="81" depart="136.00" from="-533" to="-338"/>
    <trip id="82" depart="137.00" from="-1085" to="1568"/>
    <trip id="83" depart="138.00" from="275" to="819"/>
    <trip id="84" depart="140.00" from="-819" to="1568"/>
    <trip id="85" depart="141.00" from="-1568" to="1104"/>
    <trip id="86" depart="149.00" from="275" to="1690"/>
    <trip id="87" depart="150.00" from="485" to="939"/>
    <trip id="88" depart="150.00" from="-939" to="1568"/>
    <trip id="89" depart="156.00" from="-1690" to="1104"/>
    <trip id="90" depart="159.00" from="-819" to="531"/>
    <trip id="91" depart="161.00" from="-1690" to="1677"/>
    <trip id="92" depart="166.00" from="-1085" to="1690"/>
    <trip id="93" depart="168.00" from="-531" to="819"/>
    <trip id="94" depart="169.00" from="-939" to="1102"/>
    <trip id="95" depart="169.00" from="-1690" to="1677"/>
    <trip id="96" depart="170.00" from="-939" to="1690"/>
    <trip id="97" depart="171.00" from="-1677" to="1102"/>
    <trip id="98" depart="171.00" from="-939" to="939"/>
    <trip id="99" depart="177.00" from="-531" to="1568"/>
    <trip id="100" depart="182.00" from="-1108" to="531"/>
    <trip id="101" depart="182.00" from="-1690" to="939"/>
    <trip id="102" depart="185.00" from="275" to="1085"/>
    <trip id="103" depart="187.00" from="-1690" to="1568"/>
    <trip id="104" depart="189.00" from="-1104" to="-275"/>
    <trip id="105" depart="190.00" from="-939" to="939"/>
    <trip id="106" depart="191.00" from="275" to="1102"/>
    <trip id="107" depart="191.00" from="-939" to="1085"/>
    <trip id="108" depart="193.00" from="-1677" to="1568"/>
    <trip id="109" depart="194.00" from="-1568" to="1568"/>
    <trip id="110" depart="195.00" from="-531" to="1677"/>
    <trip id="111" depart="196.00" from="-939" to="1568"/>
    <trip id="112" depart="197.00" from="-819" to="1102"/>
    <trip id="113" depart="197.00" from="-1690" to="-275"/>
    <trip id="114" depart="199.00" from="275" to="1108"/>
    <trip id="115" depart="199.00" from="-1102" to="1102"/>
    <trip id="116" depart="200.00" from="-1085" to="531"/>
    <trip id="117" depart="201.00" from="-819" to="1677"/>
    <trip id="118" depart="202.00" from="-1690" to="939"/>
    <trip id="119" depart="202.00" from="-819" to="819"/>
    <trip id="120" depart="203.00" from="-1677" to="1104"/>
    <trip id="121" depart="204.00" from="-1085" to="1690"/>
    <trip id="122" depart="205.00" from="-1104" to="1690"/>
    <trip id="123" depart="206.00" from="-819" to="819"/>
    <trip id="124" depart="209.00" from="-1677" to="1690"/>
    <trip id="125" depart="210.00" from="-939" to="-275"/>
    <trip id="126" depart="210.00" from="-819" to="819"/>
    <trip id="127" depart="211.00" from="-1568" to="1690"/>
    <trip id="128" depart="214.00" from="-939" to="1104"/>
    <trip id="129" depart="216.00" from="275" to="819"/>
    <trip id="130" depart="218.00" from="-939" to="1677"/>
    <trip id="131" depart="218.00" from="-531" to="-275"/>
    <trip id="132" depart="221.00" from="-1085" to="1085"/>
    <trip id="133" depart="223.00" from="-1677" to="1102"/>
    <trip id="134" depart="224.00" from="-1677" to="1677"/>
    <trip id="135" depart="224.00" from="-1568" to="1102"/>
    <trip id="136" depart="224.00" from="-1104" to="1104"/>
    <trip id="137" depart="225.00" from="-819" to="1085"/>
    <trip id="138" depart="226.00" from="-939" to="-275"/>
    <trip id="139" depart="226.00" from="275" to="819"/>
    <trip id="140" depart="228.00" from="-1085" to="1104"/>
    <trip id="141" depart="229.00" from="-939" to="1102"/>
    <trip id="142" depart="231.00" from="-1690" to="939"/>
    <trip id="143" depart="233.00" from="-1104" to="1690"/>
    <trip id="144" depart="237.00" from="-1677" to="1102"/>
    <trip id="145" depart="237.00" from="-1690" to="1104"/>
    <trip id="146" depart="238.00" from="-939" to="-275"/>
    <trip id="147" depart="241.00" from="-1102" to="833"/>
    <trip id="148" depart="246.00" from="-1085" to="1690"/>
    <trip id="149" depart="248.00" from="-1568" to="939"/>
    <trip id="150" depart="253.00" from="-1085" to="819"/>
    <trip id="151" depart="254.00" from="-819" to="819"/>
    <trip id="152" depart="254.00" from="-1568" to="531"/>
    <trip id="153" depart="254.00" from="-1568" to="1085"/>
    <trip id="154" depart="261.00" from="-1104" to="1690"/>
    <trip id="155" depart="262.00" from="-939" to="819"/>
    <trip id="156" depart="263.00" from="-1677" to="939"/>
    <trip id="157" depart="264.00" from="-1085" to="1568"/>
    <trip id="158" depart="265.00" from="275" to="819"/>
    <trip id="159" depart="266.00" from="-1104" to="819"/>
    <trip id="160" depart="267.00" from="-819" to="1568"/>
    <trip id="161" depart="267.00" from="-1085" to="1102"/>
    <trip id="162" depart="268.00" from="-1104" to="1102"/>
    <trip id="163" depart="268.00" from="-1677" to="531"/>
    <trip id="164" depart="269.00" from="275" to="1677"/>
    <trip id="165" depart="269.00" from="-1690" to="1102"/>
    <trip id="166" depart="269.00" from="-1677" to="1690"/>
    <trip id="167" depart="270.00" from="275" to="-275"/>
    <trip id="168" depart="273.00" from="-833" to="1104"/>
    <trip id="169" depart="274.00" from="-1690" to="819"/>
    <trip id="170" depart="276.00" from="-819" to="1568"/>
    <trip id="171" depart="277.00" from="-1104" to="-275"/>
    <trip id="172" depart="280.00" from="-1568" to="819"/>
    <trip id="173" depart="282.00" from="-531" to="819"/>
    <trip id="174" depart="283.00" from="-531" to="1102"/>
    <trip id="175" depart="284.00" from="-939" to="1104"/>
    <trip id="176" depart="286.00" from="-531" to="1104"/>
    <trip id="177" depart="287.00" from="-531" to="531"/>
    <trip id="178" depart="287.00" from="-1085" to="531"/>
    <trip id="179" depart="290.00" from="-819" to="1568"/>
    <trip id="180" depart="293.00" from="-939" to="1568"/>
    <trip id="181" depart="294.00" from="-531" to="819"/>
    <trip id="182" depart="294.00" from="-1690" to="819"/>
    <trip id="183" depart="296.00" from="-1104" to="1085"/>
    <trip id="184" depart="297.00" from="-1690" to="1104"/>
    <trip id="185" depart="298.00" from="-1568" to="949"/>
    <trip id="186" depart="299.00" from="275" to="1690"/>
    <trip id="187" depart="302.00" from="-1102" to="1085"/>
    <trip id="188" depart="304.00" from="-1568" to="1677"/>
    <trip id="189" depart="307.00" from="-1085" to="1690"/>
    <trip id="190" depart="311.00" from="-1085" to="1568"/>
    <trip id="191" depart="313.00" from="-1568" to="1677"/>
    <trip id="192" depart="314.00" from="-1104" to="1104"/>
    <trip id="193" depart="317.00" from="275" to="1677"/>
    <trip id="194" depart="318.00" from="-1690" to="819"/>
    <trip id="195" depart="322.00" from="-1690" to="531"/>
    <trip id="196" depart="323.00" from="275" to="1104"/>
    <trip id="197" depart="325.00" from="-1102" to="1104"/>
    <trip id="198" depart="331.00" from="-1677" to="939"/>
    <trip id="199" depart="333.00" from="-531" to="-275"/>
    <trip id="200" depart="334.00" from="-1085" to="1104"/>
    <trip id="201" depart="336.00" from="-1102" to="1085"/>
    <trip id="202" depart="343.00" from="-531" to="1104"/>
    <trip id="203" depart="347.00" from="-531" to="1677"/>
    <trip id="204" depart="348.00" from="-1677" to="531"/>
    <trip id="205" depart="348.00" from="-819" to="-275"/>
    <trip id="206" depart="351.00" from="-1690" to="1677"/>
    <trip id="207" depart="355.00" from="-1690" to="937"/>
    <trip id="208" depart="358.00" from="-1102" to="1568"/>
    <trip id="209" depart="361.00" from="-531" to="1085"/>
    <trip id="210" depart="361.00" from="-1568" to="1102"/>
    <trip id="211" depart="363.00" from="-531" to="1690"/>
    <trip id="212" depart="363.00" from="-1102" to="1102"/>
    <trip id="213" depart="364.00" from="275" to="1102"/>
    <trip id="214" depart="365.00" from="-1102" to="531"/>
    <trip id="215" depart="368.00" from="-1677" to="531"/>
    <trip id="216" depart="368.00" from="-1690" to="-275"/>
    <trip id="217" depart="369.00" from="-1568" to="1677"/>
    <trip id="218" depart="369.00" from="-1104" to="1677"/>
    <trip id="219" depart="370.00" from="-1690" to="819"/>
    <trip id="220" depart="371.00" from="-1677" to="819"/>
    <trip id="221" depart="372.00" from="-1568" to="-275"/>
    <trip id="222" depart="373.00" from="275" to="-275"/>
    <trip id="223" depart="378.00" from="-1085" to="1102"/>
    <trip id="224" depart="381.00" from="-939" to="1568"/>
    <trip id="225" depart="382.00" from="-1104" to="330"/>
    <trip id="226" depart="382.00" from="-531" to="531"/>
    <trip id="227" depart="382.00" from="-819" to="1104"/>
    <trip id="228" depart="383.00" from="-1690" to="1102"/>
    <trip id="229" depart="385.00" from="-531" to="1102"/>
    <trip id="230" depart="386.00" from="275" to="819"/>
    <trip id="231" depart="388.00" from="-1568" to="531"/>
    <trip id="232" depart="391.00" from="-1104" to="1085"/>
    <trip id="233" depart="392.00" from="-819" to="1085"/>
    <trip id="234" depart="395.00" from="275" to="939"/>
    <trip id="235" depart="395.00" from="-949" to="1568"/>
    <trip id="236" depart="399.00" from="275" to="1568"/>
    <trip id="237" depart="400.00" from="-1104" to="939"/>
    <trip id="238" depart="406.00" from="-1085" to="819"/>
    <trip id="239" depart="408.00" from="-1690" to="1104"/>
    <trip id="240" depart="410.00" from="-1690" to="-275"/>
    <trip id="241" depart="411.00" from="-939" to="1690"/>
    <trip id="242" depart="411.00" from="-1085" to="1085"/>
    <trip id="243" depart="415.00" from="-1568" to="1677"/>
    <trip id="244" depart="416.00" from="-1085" to="1085"/>
    <trip id="245" depart="417.00" from="-1690" to="-275"/>
    <trip id="246" depart="418.00" from="-1085" to="939"/>
    <trip id="247" depart="419.00" from="275" to="1104"/>
    <trip id="248" depart="421.00" from="-1102" to="1102"/>
    <trip id="249" depart="422.00" from="275" to="531"/>
    <trip id="250" depart="423.00" from="-1677" to="819"/>
    <trip id="251" depart="424.00" from="-1104" to="939"/>
    <trip id="252" depart="426.00" from="-531" to="531"/>
    <trip id="253" depart="427.00" from="-1102" to="531"/>
    <trip id="254" depart="428.00" from="-1085" to="1104"/>
    <trip id="255" depart="428.00" from="-1102" to="1568"/>
    <trip id="256" depart="429.00" from="-1568" to="-275"/>
    <trip id="257" depart="431.00" from="275" to="939"/>
    <trip id="258" depart="432.00" from="-1568" to="1568"/>
    <trip id="259" depart="432.00" from="-1677" to="1568"/>
    <trip id="260" depart="433.00" from="-1104" to="1102"/>
    <trip id="261" depart="434.00" from="-1568" to="939"/>
    <trip id="262" depart="436.00" from="-1568" to="939"/>
    <trip id="263" depart="439.00" from="-1690" to="1677"/>
    <trip id="264" depart="444.00" from="-330" to="1568"/>
    <trip id="265" depart="447.00" from="-819" to="1690"/>
    <trip id="266" depart="447.00" from="275" to="1690"/>
    <trip id="267" depart="449.00" from="-1104" to="1677"/>
    <trip id="268" depart="451.00" from="-1102" to="1568"/>
    <trip id="269" depart="452.00" from="275" to="1085"/>
    <trip id="270" depart="454.00" from="-939" to="1690"/>
    <trip id="271" depart="458.00" from="-531" to="1085"/>
    <trip id="272" depart="460.00" from="-1102" to="819"/>
    <trip id="273" depart="464.00" from="-1102" to="1085"/>
    <trip id="274" depart="466.00" from="-1568" to="1085"/>
    <trip id="275" depart="467.00" from="-1568" to="1568"/>
    <trip id="276" depart="468.00" from="-1568" to="-275"/>
    <trip id="277" depart="468.00" from="-939" to="939"/>
    <trip id="278" depart="470.00" from="-1085" to="531"/>
    <trip id="279" depart="472.00" from="-1102" to="531"/>
    <trip id="280" depart="473.00" from="-819" to="1677"/>
    <trip id="281" depart="473.00" from="-939" to="531"/>
    <trip id="282" depart="477.00" from="-1104" to="1085"/>
    <trip id="283" depart="478.00" from="-1568" to="1102"/>
    <trip id="284" depart="480.00" from="275" to="531"/>
    <trip id="285" depart="481.00" from="-939" to="1102"/>
    <trip id="286" depart="484.00" from="-1690" to="1102"/>
    <trip id="287" depart="485.00" from="-819" to="531"/>
    <trip id="288" depart="486.00" from="-1690" to="1102"/>
    <trip id="289" depart="489.00" from="-1102" to="531"/>
    <trip id="290" depart="490.00" from="-939" to="1568"/>
    <trip id="291" depart="490.00" from="275" to="1085"/>
    <trip id="292" depart="490.00" from="-531" to="1085"/>
    <trip id="293" depart="494.00" from="-1677" to="1085"/>
    <trip id="294" depart="495.00" from="-819" to="819"/>
    <trip id="295" depart="495.00" from="-1085" to="1104"/>
    <trip id="296" depart="496.00" from="-1568" to="819"/>
    <trip id="297" depart="496.00" from="-819" to="531"/>
    <trip id="298" depart="496.00" from="-485" to="1085"/>
    <trip id="299" depart="497.00" from="-531" to="1568"/>
    <trip id="300" depart="499.00" from="-1102" to="531"/>
    <trip id="301" depart="500.00" from="-1104" to="-275"/>
    <trip id="302" depart="503.00" from="275" to="939"/>
    <trip id="303" depart="504.00" from="-1690" to="1677"/>
    <trip id="304" depart="505.00" from="-939" to="1677"/>
    <trip id="305" depart="506.00" from="-1085" to="1102"/>
    <trip id="306" depart="507.00" from="-1085" to="531"/>
    <trip id="307" depart="508.00" from="-1690" to="1690"/>
    <trip id="308" depart="511.00" from="-819" to="531"/>
    <trip id="309" depart="511.00" from="-1085" to="1568"/>
    <trip id="310" depart="513.00" from="-819" to="531"/>
    <trip id="311" depart="515.00" from="-819" to="1102"/>
    <trip id="312" depart="515.00" from="-939" to="1102"/>
    <trip id="313" depart="516.00" from="-819" to="1677"/>
    <trip id="314" depart="516.00" from="-1677" to="1104"/>
    <trip id="315" depart="517.00" from="-1690" to="531"/>
    <trip id="316" depart="518.00" from="-939" to="1102"/>
    <trip id="317" depart="519.00" from="275" to="819"/>
    <trip id="318" depart="521.00" from="-1568" to="1568"/>
    <trip id="319" depart="522.00" from="-1677" to="1102"/>
    <trip id="320" depart="523.00" from="-1104" to="1677"/>
    <trip id="321" depart="526.00" from="-1677" to="1102"/>
    <trip id="322" depart="527.00" from="-531" to="819"/>
    <trip id="323" depart="528.00" from="-1690" to="1102"/>
    <trip id="324" depart="528.00" from="-833" to="531"/>
    <trip id="325" depart="529.00" from="275" to="819"/>
    <trip id="326" depart="530.00" from="-1085" to="1085"/>
    <trip id="327" depart="530.00" from="-1690" to="1568"/>
    <trip id="328" depart="533.00" from="-1104" to="531"/>
    <trip id="329" depart="536.00" from="-1102" to="1690"/>
    <trip id="330" depart="536.00" from="-939" to="1104"/>
    <trip id="331" depart="537.00" from="-1104" to="1104"/>
    <trip id="332" depart="538.00" from="-1677" to="1568"/>
    <trip id="333" depart="539.00" from="-1085" to="819"/>
    <trip id="334" depart="540.00" from="-939" to="1104"/>
    <trip id="335" depart="541.00" from="-1085" to="939"/>
    <trip id="336" depart="542.00" from="275" to="819"/>
    <trip id="337" depart="542.00" from="-1677" to="1085"/>
    <trip id="338" depart="543.00" from="-531" to="1085"/>
    <trip id="339" depart="544.00" from="-531" to="1102"/>
    <trip id="340" depart="545.00" from="-1104" to="1085"/>
    <trip id="341" depart="550.00" from="338" to="1677"/>
    <trip id="342" depart="551.00" from="-531" to="1102"/>
    <trip id="343" depart="552.00" from="-833" to="1102"/>
    <trip id="344" depart="555.00" from="-819" to="939"/>
    <trip id="345" depart="557.00" from="-1104" to="1102"/>
    <trip id="346" depart="558.00" from="275" to="1085"/>
    <trip id="347" depart="558.00" from="-819" to="939"/>
    <trip id="348" depart="559.00" from="-1690" to="939"/>
    <trip id="349" depart="561.00" from="-1568" to="1085"/>
    <trip id="350" depart="565.00" from="-819" to="939"/>
    <trip id="351" depart="566.00" from="-531" to="939"/>
    <trip id="352" depart="567.00" from="-819" to="1102"/>
    <trip id="353" depart="568.00" from="-819" to="1690"/>
    <trip id="354" depart="569.00" from="-1104" to="937"/>
    <trip id="355" depart="570.00" from="-1568" to="531"/>
    <trip id="356" depart="571.00" from="-1677" to="819"/>
    <trip id="357" depart="572.00" from="-939" to="1102"/>
    <trip id="358" depart="573.00" from="-1102" to="1104"/>
    <trip id="359" depart="574.00" from="-531" to="1690"/>
    <trip id="360" depart="574.00" from="275" to="1085"/>
    <trip id="361" depart="575.00" from="-1104" to="1085"/>
    <trip id="362" depart="577.00" from="-1690" to="819"/>
    <trip id="363" depart="579.00" from="-1102" to="1102"/>
    <trip id="364" depart="579.00" from="-939" to="1104"/>
    <trip id="365" depart="580.00" from="-1690" to="1085"/>
    <trip id="366" depart="582.00" from="-819" to="1690"/>
    <trip id="367" depart="582.00" from="-1568" to="1677"/>
    <trip id="368" depart="585.00" from="275" to="531"/>
    <trip id="369" depart="587.00" from="-819" to="1085"/>
    <trip id="370" depart="588.00" from="-1677" to="939"/>
    <trip id="371" depart="590.00" from="-1568" to="1104"/>
    <trip id="372" depart="592.00" from="-330" to="531"/>
    <trip id="373" depart="593.00" from="-1104" to="1677"/>
    <trip id="374" depart="595.00" from="-1104" to="1085"/>
    <trip id="375" depart="596.00" from="949" to="1104"/>
    <trip id="376" depart="597.00" from="-939" to="1102"/>
    <trip id="377" depart="598.00" from="-939" to="1085"/>
    <trip id="378" depart="602.00" from="-939" to="819"/>
    <trip id="379" depart="603.00" from="-1102" to="819"/>
    <trip id="380" depart="605.00" from="-1085" to="1104"/>
    <trip id="381" depart="610.00" from="-819" to="531"/>
    <trip id="382" depart="610.00" from="275" to="1690"/>
    <trip id="383" depart="611.00" from="-1104" to="819"/>
    <trip id="384" depart="614.00" from="-1690" to="1690"/>
    <trip id="385" depart="615.00" from="-1085" to="939"/>
    <trip id="386" depart="617.00" from="-819" to="937"/>
    <trip id="387" depart="620.00" from="-819" to="1677"/>
    <trip id="388" depart="623.00" from="-1102" to="1102"/>
    <trip id="389" depart="625.00" from="-1568" to="531"/>
    <trip id="390" depart="628.00" from="-949" to="1568"/>
    <trip id="391" depart="629.00" from="-939" to="1085"/>
    <trip id="392" depart="632.00" from="-1104" to="531"/>
    <trip id="393" depart="633.00" from="-531" to="1690"/>
    <trip id="394" depart="634.00" from="-1104" to="1104"/>
    <trip id="395" depart="634.00" from="-1568" to="819"/>
    <trip id="396" depart="636.00" from="-1568" to="1677"/>
    <trip id="397" depart="641.00" from="-819" to="1677"/>
    <trip id="398" depart="642.00" from="-939" to="1102"/>
    <trip id="399" depart="642.00" from="539" to="1690"/>
    <trip id="400" depart="643.00" from="-539" to="1568"/>
    <trip id="401" depart="646.00" from="-939" to="539"/>
    <trip id="402" depart="646.00" from="-1102" to="833"/>
    <trip id="403" depart="648.00" from="-1690" to="1089"/>
    <trip id="404" depart="649.00" from="-531" to="939"/>
    <trip id="405" depart="650.00" from="-1085" to="1677"/>
    <trip id="406" depart="650.00" from="-1104" to="1102"/>
    <trip id="407" depart="651.00" from="-1102" to="-275"/>
    <trip id="408" depart="653.00" from="-819" to="-275"/>
    <trip id="409" depart="655.00" from="-939" to="1085"/>
    <trip id="410" depart="657.00" from="-819" to="-275"/>
    <trip id="411" depart="659.00" from="-531" to="819"/>
    <trip id="412" depart="660.00" from="275" to="1085"/>
    <trip id="413" depart="660.00" from="-1104" to="1104"/>
    <trip id="414" depart="663.00" from="-531" to="1102"/>
    <trip id="415" depart="665.00" from="-531" to="1085"/>
    <trip id="416" depart="666.00" from="-1690" to="1102"/>
    <trip id="417" depart="666.00" from="-1104" to="1690"/>
    <trip id="418" depart="668.00" from="-1690" to="1690"/>
    <trip id="419" depart="669.00" from="-1677" to="1677"/>
    <trip id="420" depart="669.00" from="-1085" to="1690"/>
    <trip id="421" depart="671.00" from="-1104" to="1568"/>
    <trip id="422" depart="672.00" from="-819" to="1102"/>
    <trip id="423" depart="674.00" from="-1102" to="1085"/>
    <trip id="424" depart="675.00" from="-531" to="1085"/>
    <trip id="425" depart="676.00" from="-1677" to="939"/>
    <trip id="426" depart="678.00" from="-1690" to="1677"/>
    <trip id="427" depart="678.00" from="275" to="819"/>
    <trip id="428" depart="680.00" from="-1568" to="1690"/>
    <trip id="429" depart="683.00" from="-1677" to="485"/>
    <trip id="430" depart="688.00" from="-1568" to="1568"/>
    <trip id="431" depart="690.00" from="-1102" to="1690"/>
    <trip id="432" depart="693.00" from="-939" to="-485"/>
    <trip id="433" depart="697.00" from="-1104" to="1690"/>
    <trip id="434" depart="702.00" from="-1690" to="1102"/>
    <trip id="435" depart="704.00" from="275" to="1690"/>
    <trip id="436" depart="706.00" from="-1690" to="1568"/>
    <trip id="437" depart="706.00" from="-1104" to="1102"/>
    <trip id="438" depart="709.00" from="-531" to="1568"/>
    <trip id="439" depart="713.00" from="275" to="1085"/>
    <trip id="440" depart="714.00" from="-1085" to="1690"/>
    <trip id="441" depart="715.00" from="-1690" to="531"/>
    <trip id="442" depart="718.00" from="-1085" to="531"/>
    <trip id="443" depart="720.00" from="-531" to="1677"/>
    <trip id="444" depart="721.00" from="275" to="541"/>
    <trip id="445" depart="722.00" from="-819" to="1568"/>
    <trip id="446" depart="723.00" from="-1568" to="531"/>
    <trip id="447" depart="724.00" from="-531" to="939"/>
    <trip id="448" depart="726.00" from="-1085" to="1677"/>
    <trip id="449" depart="731.00" from="-1089" to="531"/>
    <trip id="450" depart="732.00" from="-531" to="-275"/>
    <trip id="451" depart="735.00" from="-1104" to="1102"/>
    <trip id="452" depart="736.00" from="-819" to="819"/>
    <trip id="453" depart="738.00" from="-1690" to="1102"/>
    <trip id="454" depart="739.00" from="-1085" to="-275"/>
    <trip id="455" depart="739.00" from="-1690" to="1108"/>
    <trip id="456" depart="748.00" from="-1568" to="-275"/>
    <trip id="457" depart="749.00" from="275" to="1104"/>
    <trip id="458" depart="755.00" from="-1102" to="-275"/>
    <trip id="459" depart="756.00" from="-1104" to="819"/>
    <trip id="460" depart="758.00" from="-1085" to="1677"/>
    <trip id="461" depart="759.00" from="-1690" to="-275"/>
    <trip id="462" depart="760.00" from="-819" to="1690"/>
    <trip id="463" depart="761.00" from="-1677" to="939"/>
    <trip id="464" depart="765.00" from="-1104" to="819"/>
    <trip id="465" depart="765.00" from="-1085" to="1568"/>
    <trip id="466" depart="766.00" from="-819" to="1677"/>
    <trip id="467" depart="766.00" from="-1677" to="1085"/>
    <trip id="468" depart="768.00" from="-1690" to="1102"/>
    <trip id="469" depart="770.00" from="-1102" to="1568"/>
    <trip id="470" depart="773.00" from="-1085" to="1690"/>
    <trip id="471" depart="782.00" from="-1085" to="1085"/>
    <trip id="472" depart="783.00" from="-1104" to="-275"/>
    <trip id="473" depart="783.00" from="-1568" to="939"/>
    <trip id="474" depart="786.00" from="-531" to="1677"/>
    <trip id="475" depart="787.00" from="-1104" to="1089"/>
    <trip id="476" depart="789.00" from="-1085" to="1102"/>
    <trip id="477" depart="792.00" from="-1085" to="1102"/>
    <trip id="478" depart="796.00" from="-1102" to="-275"/>
    <trip id="479" depart="798.00" from="-939" to="1102"/>
    <trip id="480" depart="798.00" from="-531" to="819"/>
    <trip id="481" depart="799.00" from="275" to="1568"/>
    <trip id="482" depart="803.00" from="275" to="1690"/>
    <trip id="483" depart="804.00" from="-1677" to="1690"/>