<?xml version="1.0" encoding="UTF-8"?>

<!-- generated on 2025-03-10 17:19:15 by Eclipse SUMO netedit Version 1.20.0
<configuration xmlns:xsi="http://www.w3.org/2001/XMLSchema-instance" xsi:noNamespaceSchemaLocation="http://sumo.dlr.de/xsd/neteditConfiguration.xsd">

    <input>
        <sumo-net-file value="/Volumes/Crucial_X6/repos/pytsc/pytsc/scenarios/sumo/random_grid/random_grid.net.xml"/>
    </input>

    <output>
        <output-file value="/Volumes/Crucial_X6/repos/pytsc/pytsc/scenarios/sumo/random_grid/random_grid.net.xml"/>
    </output>

    <processing>
        <geometry.min-radius.fix.railways value="false"/>
        <geometry.max-grade.fix value="false"/>
        <offset.disable-normalization value="true"/>
        <lefthand value="0"/>
    </processing>

    <junctions>
        <no-turnarounds value="true"/>
        <junctions.corner-detail value="5"/>
        <junctions.limit-turn-speed value="5.50"/>
        <rectangular-lane-cut value="0"/>
    </junctions>

    <pedestrian>
        <walkingareas value="0"/>
    </pedestrian>

</configuration>
-->

<net version="1.20" junctionCornerDetail="5" limitTurnSpeed="5.50" xmlns:xsi="http://www.w3.org/2001/XMLSchema-instance" xsi:noNamespaceSchemaLocation="http://sumo.dlr.de/xsd/net_file.xsd">

    <location netOffset="2000.00,1800.00" convBoundary="0.00,0.00,2800.00,3000.00" origBoundary="-2000.00,-1800.00,800.00,1200.00" projParameter="!"/>

    <edge id=":1_0" function="internal">
        <lane id=":1_0_0" index="0" speed="6.51" length="9.03" shape="1995.20,1810.40 1994.85,1807.95 1993.80,1806.20 1992.05,1805.15 1989.60,1804.80"/>
    </edge>
    <edge id=":1_1" function="internal">
        <lane id=":1_1_0" index="0" speed="13.89" length="20.80" shape="1995.20,1810.40 1995.20,1789.60"/>
        <lane id=":1_1_1" index="1" speed="13.89" length="20.80" shape="1998.40,1810.40 1998.40,1789.60"/>
    </edge>
    <edge id=":1_3" function="internal">
        <lane id=":1_3_0" index="0" speed="9.26" length="5.01" shape="1998.40,1810.40 1999.11,1805.44"/>
    </edge>
    <edge id=":1_16" function="internal">
        <lane id=":1_16_0" index="0" speed="9.26" length="14.34" shape="1999.11,1805.44 1999.15,1805.15 2001.40,1801.40 2005.15,1799.15 2010.40,1798.40"/>
    </edge>
    <edge id=":1_4" function="internal">
        <lane id=":1_4_0" index="0" speed="6.51" length="9.03" shape="2010.40,1804.80 2007.95,1805.15 2006.20,1806.20 2005.15,1807.95 2004.80,1810.40"/>
    </edge>
    <edge id=":1_5" function="internal">
        <lane id=":1_5_0" index="0" speed="13.89" length="20.80" shape="2010.40,1804.80 1989.60,1804.80"/>
        <lane id=":1_5_1" index="1" speed="13.89" length="20.80" shape="2010.40,1801.60 1989.60,1801.60"/>
    </edge>
    <edge id=":1_7" function="internal">
        <lane id=":1_7_0" index="0" speed="9.26" length="5.01" shape="2010.40,1801.60 2005.44,1800.89"/>
    </edge>
    <edge id=":1_17" function="internal">
        <lane id=":1_17_0" index="0" speed="9.26" length="14.34" shape="2005.44,1800.89 2005.15,1800.85 2001.40,1798.60 1999.15,1794.85 1998.40,1789.60"/>
    </edge>
    <edge id=":1_8" function="internal">
        <lane id=":1_8_0" index="0" speed="6.51" length="9.03" shape="2004.80,1789.60 2005.15,1792.05 2006.20,1793.80 2007.95,1794.85 2010.40,1795.20"/>
    </edge>
    <edge id=":1_9" function="internal">
        <lane id=":1_9_0" index="0" speed="13.89" length="20.80" shape="2004.80,1789.60 2004.80,1810.40"/>
        <lane id=":1_9_1" index="1" speed="13.89" length="20.80" shape="2001.60,1789.60 2001.60,1810.40"/>
    </edge>
    <edge id=":1_11" function="internal">
        <lane id=":1_11_0" index="0" speed="9.26" length="5.01" shape="2001.60,1789.60 2000.89,1794.56"/>
    </edge>
    <edge id=":1_18" function="internal">
        <lane id=":1_18_0" index="0" speed="9.26" length="14.34" shape="2000.89,1794.56 2000.85,1794.85 1998.60,1798.60 1994.85,1800.85 1989.60,1801.60"/>
    </edge>
    <edge id=":1_12" function="internal">
        <lane id=":1_12_0" index="0" speed="6.51" length="9.03" shape="1989.60,1795.20 1992.05,1794.85 1993.80,1793.80 1994.85,1792.05 1995.20,1789.60"/>
    </edge>
    <edge id=":1_13" function="internal">
        <lane id=":1_13_0" index="0" speed="13.89" length="20.80" shape="1989.60,1795.20 2010.40,1795.20"/>
        <lane id=":1_13_1" index="1" speed="13.89" length="20.80" shape="1989.60,1798.40 2010.40,1798.40"/>
    </edge>
    <edge id=":1_15" function="internal">
        <lane id=":1_15_0" index="0" speed="9.26" length="5.01" shape="1989.60,1798.40 1994.56,1799.11"/>
    </edge>
    <edge id=":1_19" function="internal">
        <lane id=":1_19_0" index="0" speed="9.26" length="14.34" shape="1994.56,1799.11 1994.85,1799.15 1998.60,1801.40 2000.85,1805.15 2001.60,1810.40"/>
    </edge>
    <edge id=":10_0" function="internal">
        <lane id=":10_0_0" index="0" speed="13.89" length="20.80" shape="1795.20,1810.40 1795.20,1789.60"/>
        <lane id=":10_0_1" index="1" speed="13.89" length="20.80" shape="1798.40,1810.40 1798.40,1789.60"/>
    </edge>
    <edge id=":10_2" function="internal">
        <lane id=":10_2_0" index="0" speed="9.26" length="5.01" shape="1798.40,1810.40 1799.11,1805.44"/>
    </edge>
    <edge id=":10_9" function="internal">
        <lane id=":10_9_0" index="0" speed="9.26" length="14.34" shape="1799.11,1805.44 1799.15,1805.15 1801.40,1801.40 1805.15,1799.15 1810.40,1798.40"/>
    </edge>
    <edge id=":10_3" function="internal">
        <lane id=":10_3_0" index="0" speed="6.51" length="9.03" shape="1810.40,1804.80 1807.95,1805.15 1806.20,1806.20 1805.15,1807.95 1804.80,1810.40"/>
        <lane id=":10_3_1" index="1" speed="8.00" length="14.19" shape="1810.40,1801.60 1806.55,1802.15 1803.80,1803.80 1802.15,1806.55 1801.60,1810.40"/>
    </edge>
    <edge id=":10_5" function="internal">
        <lane id=":10_5_0" index="0" speed="9.26" length="19.35" shape="1810.40,1801.60 1805.15,1800.85 1801.40,1798.60 1799.15,1794.85 1798.40,1789.60"/>
    </edge>
    <edge id=":10_6" function="internal">
        <lane id=":10_6_0" index="0" speed="6.51" length="9.03" shape="1804.80,1789.60 1805.15,1792.05 1806.20,1793.80 1807.95,1794.85 1810.40,1795.20"/>
    </edge>
    <edge id=":10_7" function="internal">
        <lane id=":10_7_0" index="0" speed="13.89" length="20.80" shape="1804.80,1789.60 1804.80,1810.40"/>
        <lane id=":10_7_1" index="1" speed="13.89" length="20.80" shape="1801.60,1789.60 1801.60,1810.40"/>
    </edge>
    <edge id=":1068_0" function="internal">
        <lane id=":1068_0_0" index="0" speed="8.96" length="18.06" shape="1406.40,3004.80 1401.50,3004.10 1398.00,3002.00 1395.90,2998.50 1395.20,2993.60"/>
        <lane id=":1068_0_1" index="1" speed="7.66" length="12.90" shape="1406.40,3001.60 1402.90,3001.10 1400.40,2999.60 1398.90,2997.10 1398.40,2993.60"/>
    </edge>
    <edge id=":1068_2" function="internal">
        <lane id=":1068_2_0" index="0" speed="3.90" length="2.58" shape="1404.80,2993.60 1404.90,2994.30 1405.20,2994.80 1405.70,2995.10 1406.40,2995.20"/>
        <lane id=":1068_2_1" index="1" speed="6.08" length="7.74" shape="1401.60,2993.60 1401.90,2995.70 1402.80,2997.20 1404.30,2998.10 1406.40,2998.40"/>
    </edge>
    <edge id=":1084_0" function="internal">
        <lane id=":1084_0_0" index="0" speed="6.51" length="9.03" shape="1595.20,410.40 1594.85,407.95 1593.80,406.20 1592.05,405.15 1589.60,404.80"/>
    </edge>
    <edge id=":1084_1" function="internal">
        <lane id=":1084_1_0" index="0" speed="13.89" length="20.80" shape="1595.20,410.40 1595.20,389.60"/>
        <lane id=":1084_1_1" index="1" speed="13.89" length="20.80" shape="1598.40,410.40 1598.40,389.60"/>
    </edge>
    <edge id=":1084_3" function="internal">
        <lane id=":1084_3_0" index="0" speed="13.89" length="20.80" shape="1604.80,389.60 1604.80,410.40"/>
        <lane id=":1084_3_1" index="1" speed="13.89" length="20.80" shape="1601.60,389.60 1601.60,410.40"/>
    </edge>
    <edge id=":1084_5" function="internal">
        <lane id=":1084_5_0" index="0" speed="9.26" length="5.01" shape="1601.60,389.60 1600.89,394.56"/>
    </edge>
    <edge id=":1084_9" function="internal">
        <lane id=":1084_9_0" index="0" speed="9.26" length="14.34" shape="1600.89,394.56 1600.85,394.85 1598.60,398.60 1594.85,400.85 1589.60,401.60"/>
    </edge>
    <edge id=":1084_6" function="internal">
        <lane id=":1084_6_0" index="0" speed="6.51" length="9.03" shape="1589.60,395.20 1592.05,394.85 1593.80,393.80 1594.85,392.05 1595.20,389.60"/>
        <lane id=":1084_6_1" index="1" speed="8.00" length="14.19" shape="1589.60,398.40 1593.45,397.85 1596.20,396.20 1597.85,393.45 1598.40,389.60"/>
    </edge>
    <edge id=":1084_8" function="internal">
        <lane id=":1084_8_0" index="0" speed="9.26" length="19.35" shape="1589.60,398.40 1594.85,399.15 1598.60,401.40 1600.85,405.15 1601.60,410.40"/>
    </edge>
    <edge id=":1088_0" function="internal">
        <lane id=":1088_0_0" index="0" speed="13.89" length="0.10" shape="400.00,804.80 400.00,804.80"/>
        <lane id=":1088_0_1" index="1" speed="13.89" length="0.10" shape="400.00,801.60 400.00,801.60"/>
    </edge>
    <edge id=":1088_2" function="internal">
        <lane id=":1088_2_0" index="0" speed="13.89" length="0.10" shape="400.00,795.20 400.00,795.20"/>
        <lane id=":1088_2_1" index="1" speed="13.89" length="0.10" shape="400.00,798.40 400.00,798.40"/>
    </edge>
    <edge id=":1107_0" function="internal">
        <lane id=":1107_0_0" index="0" speed="8.96" length="18.06" shape="395.20,1406.40 395.90,1401.50 398.00,1398.00 401.50,1395.90 406.40,1395.20"/>
        <lane id=":1107_0_1" index="1" speed="7.66" length="12.90" shape="398.40,1406.40 398.90,1402.90 400.40,1400.40 402.90,1398.90 406.40,1398.40"/>
    </edge>
    <edge id=":1107_2" function="internal">
        <lane id=":1107_2_0" index="0" speed="3.90" length="2.58" shape="406.40,1404.80 405.70,1404.90 405.20,1405.20 404.90,1405.70 404.80,1406.40"/>
        <lane id=":1107_2_1" index="1" speed="6.08" length="7.74" shape="406.40,1401.60 404.30,1401.90 402.80,1402.80 401.90,1404.30 401.60,1406.40"/>
    </edge>
    <edge id=":14_0" function="internal">
        <lane id=":14_0_0" index="0" speed="13.89" length="20.80" shape="2010.40,2204.80 1989.60,2204.80"/>
        <lane id=":14_0_1" index="1" speed="13.89" length="20.80" shape="2010.40,2201.60 1989.60,2201.60"/>
    </edge>
    <edge id=":14_2" function="internal">
        <lane id=":14_2_0" index="0" speed="9.26" length="5.01" shape="2010.40,2201.60 2005.44,2200.89"/>
    </edge>
    <edge id=":14_9" function="internal">
        <lane id=":14_9_0" index="0" speed="9.26" length="14.34" shape="2005.44,2200.89 2005.15,2200.85 2001.40,2198.60 1999.15,2194.85 1998.40,2189.60"/>
    </edge>
    <edge id=":14_3" function="internal">
        <lane id=":14_3_0" index="0" speed="6.51" length="9.03" shape="2004.80,2189.60 2005.15,2192.05 2006.20,2193.80 2007.95,2194.85 2010.40,2195.20"/>
        <lane id=":14_3_1" index="1" speed="8.00" length="14.19" shape="2001.60,2189.60 2002.15,2193.45 2003.80,2196.20 2006.55,2197.85 2010.40,2198.40"/>
    </edge>
    <edge id=":14_5" function="internal">
        <lane id=":14_5_0" index="0" speed="9.26" length="19.35" shape="2001.60,2189.60 2000.85,2194.85 1998.60,2198.60 1994.85,2200.85 1989.60,2201.60"/>
    </edge>
    <edge id=":14_6" function="internal">
        <lane id=":14_6_0" index="0" speed="6.51" length="9.03" shape="1989.60,2195.20 1992.05,2194.85 1993.80,2193.80 1994.85,2192.05 1995.20,2189.60"/>
    </edge>
    <edge id=":14_7" function="internal">
        <lane id=":14_7_0" index="0" speed="13.89" length="20.80" shape="1989.60,2195.20 2010.40,2195.20"/>
        <lane id=":14_7_1" index="1" speed="13.89" length="20.80" shape="1989.60,2198.40 2010.40,2198.40"/>
    </edge>
    <edge id=":1438_0" function="internal">
        <lane id=":1438_0_0" index="0" speed="8.96" length="18.06" shape="1206.40,2004.80 1201.50,2004.10 1198.00,2002.00 1195.90,1998.50 1195.20,1993.60"/>
        <lane id=":1438_0_1" index="1" speed="7.66" length="12.90" shape="1206.40,2001.60 1202.90,2001.10 1200.40,1999.60 1198.90,1997.10 1198.40,1993.60"/>
    </edge>
    <edge id=":1438_2" function="internal">
        <lane id=":1438_2_0" index="0" speed="3.90" length="2.58" shape="1204.80,1993.60 1204.90,1994.30 1205.20,1994.80 1205.70,1995.10 1206.40,1995.20"/>
        <lane id=":1438_2_1" index="1" speed="6.08" length="7.74" shape="1201.60,1993.60 1201.90,1995.70 1202.80,1997.20 1204.30,1998.10 1206.40,1998.40"/>
    </edge>
    <edge id=":1442_0" function="internal">
        <lane id=":1442_0_0" index="0" speed="3.90" length="2.58" shape="1595.20,2006.40 1595.10,2005.70 1594.80,2005.20 1594.30,2004.90 1593.60,2004.80"/>
        <lane id=":1442_0_1" index="1" speed="6.08" length="7.74" shape="1598.40,2006.40 1598.10,2004.30 1597.20,2002.80 1595.70,2001.90 1593.60,2001.60"/>
    </edge>
    <edge id=":1442_2" function="internal">
        <lane id=":1442_2_0" index="0" speed="8.96" length="18.06" shape="1593.60,1995.20 1598.50,1995.90 1602.00,1998.00 1604.10,2001.50 1604.80,2006.40"/>
        <lane id=":1442_2_1" index="1" speed="7.66" length="12.90" shape="1593.60,1998.40 1597.10,1998.90 1599.60,2000.40 1601.10,2002.90 1601.60,2006.40"/>
    </edge>
    <edge id=":1447_0" function="internal">
        <lane id=":1447_0_0" index="0" speed="8.96" length="18.06" shape="1604.80,2193.60 1604.10,2198.50 1602.00,2202.00 1598.50,2204.10 1593.60,2204.80"/>
        <lane id=":1447_0_1" index="1" speed="7.66" length="12.90" shape="1601.60,2193.60 1601.10,2197.10 1599.60,2199.60 1597.10,2201.10 1593.60,2201.60"/>
    </edge>
    <edge id=":1447_2" function="internal">
        <lane id=":1447_2_0" index="0" speed="3.90" length="2.58" shape="1593.60,2195.20 1594.30,2195.10 1594.80,2194.80 1595.10,2194.30 1595.20,2193.60"/>
        <lane id=":1447_2_1" index="1" speed="6.08" length="7.74" shape="1593.60,2198.40 1595.70,2198.10 1597.20,2197.20 1598.10,2195.70 1598.40,2193.60"/>
    </edge>
    <edge id=":153_0" function="internal">
        <lane id=":153_0_0" index="0" speed="13.89" length="20.80" shape="1810.40,1404.80 1789.60,1404.80"/>
        <lane id=":153_0_1" index="1" speed="13.89" length="20.80" shape="1810.40,1401.60 1789.60,1401.60"/>
    </edge>
    <edge id=":153_2" function="internal">
        <lane id=":153_2_0" index="0" speed="9.26" length="5.01" shape="1810.40,1401.60 1805.44,1400.89"/>
    </edge>
    <edge id=":153_9" function="internal">
        <lane id=":153_9_0" index="0" speed="9.26" length="14.34" shape="1805.44,1400.89 1805.15,1400.85 1801.40,1398.60 1799.15,1394.85 1798.40,1389.60"/>
    </edge>
    <edge id=":153_3" function="internal">
        <lane id=":153_3_0" index="0" speed="6.51" length="9.03" shape="1804.80,1389.60 1805.15,1392.05 1806.20,1393.80 1807.95,1394.85 1810.40,1395.20"/>
        <lane id=":153_3_1" index="1" speed="8.00" length="14.19" shape="1801.60,1389.60 1802.15,1393.45 1803.80,1396.20 1806.55,1397.85 1810.40,1398.40"/>
    </edge>
    <edge id=":153_5" function="internal">
        <lane id=":153_5_0" index="0" speed="9.26" length="19.35" shape="1801.60,1389.60 1800.85,1394.85 1798.60,1398.60 1794.85,1400.85 1789.60,1401.60"/>
    </edge>
    <edge id=":153_6" function="internal">
        <lane id=":153_6_0" index="0" speed="6.51" length="9.03" shape="1789.60,1395.20 1792.05,1394.85 1793.80,1393.80 1794.85,1392.05 1795.20,1389.60"/>
    </edge>
    <edge id=":153_7" function="internal">
        <lane id=":153_7_0" index="0" speed="13.89" length="20.80" shape="1789.60,1395.20 1810.40,1395.20"/>
        <lane id=":153_7_1" index="1" speed="13.89" length="20.80" shape="1789.60,1398.40 1810.40,1398.40"/>
    </edge>
    <edge id=":1560_0" function="internal">
        <lane id=":1560_0_0" index="0" speed="6.51" length="9.03" shape="1595.20,210.40 1594.85,207.95 1593.80,206.20 1592.05,205.15 1589.60,204.80"/>
    </edge>
    <edge id=":1560_1" function="internal">
        <lane id=":1560_1_0" index="0" speed="13.89" length="20.80" shape="1595.20,210.40 1595.20,189.60"/>
        <lane id=":1560_1_1" index="1" speed="13.89" length="20.80" shape="1598.40,210.40 1598.40,189.60"/>
    </edge>
    <edge id=":1560_3" function="internal">
        <lane id=":1560_3_0" index="0" speed="13.89" length="20.80" shape="1604.80,189.60 1604.80,210.40"/>
        <lane id=":1560_3_1" index="1" speed="13.89" length="20.80" shape="1601.60,189.60 1601.60,210.40"/>
    </edge>
    <edge id=":1560_5" function="internal">
        <lane id=":1560_5_0" index="0" speed="9.26" length="5.01" shape="1601.60,189.60 1600.89,194.56"/>
    </edge>
    <edge id=":1560_9" function="internal">
        <lane id=":1560_9_0" index="0" speed="9.26" length="14.34" shape="1600.89,194.56 1600.85,194.85 1598.60,198.60 1594.85,200.85 1589.60,201.60"/>
    </edge>
    <edge id=":1560_6" function="internal">
        <lane id=":1560_6_0" index="0" speed="6.51" length="9.03" shape="1589.60,195.20 1592.05,194.85 1593.80,193.80 1594.85,192.05 1595.20,189.60"/>
        <lane id=":1560_6_1" index="1" speed="8.00" length="14.19" shape="1589.60,198.40 1593.45,197.85 1596.20,196.20 1597.85,193.45 1598.40,189.60"/>
    </edge>
    <edge id=":1560_8" function="internal">
        <lane id=":1560_8_0" index="0" speed="9.26" length="19.35" shape="1589.60,198.40 1594.85,199.15 1598.60,201.40 1600.85,205.15 1601.60,210.40"/>
    </edge>
    <edge id=":1572_0" function="internal">
        <lane id=":1572_0_0" index="0" speed="6.51" length="9.03" shape="1195.20,1610.40 1194.85,1607.95 1193.80,1606.20 1192.05,1605.15 1189.60,1604.80"/>
        <lane id=":1572_0_1" index="1" speed="8.00" length="14.19" shape="1198.40,1610.40 1197.85,1606.55 1196.20,1603.80 1193.45,1602.15 1189.60,1601.60"/>
    </edge>
    <edge id=":1572_2" function="internal">
        <lane id=":1572_2_0" index="0" speed="9.26" length="19.35" shape="1198.40,1610.40 1199.15,1605.15 1201.40,1601.40 1205.15,1599.15 1210.40,1598.40"/>
    </edge>
    <edge id=":1572_3" function="internal">
        <lane id=":1572_3_0" index="0" speed="6.51" length="9.03" shape="1210.40,1604.80 1207.95,1605.15 1206.20,1606.20 1205.15,1607.95 1204.80,1610.40"/>
    </edge>
    <edge id=":1572_4" function="internal">
        <lane id=":1572_4_0" index="0" speed="13.89" length="20.80" shape="1210.40,1604.80 1189.60,1604.80"/>
        <lane id=":1572_4_1" index="1" speed="13.89" length="20.80" shape="1210.40,1601.60 1189.60,1601.60"/>
    </edge>
    <edge id=":1572_6" function="internal">
        <lane id=":1572_6_0" index="0" speed="13.89" length="20.80" shape="1189.60,1595.20 1210.40,1595.20"/>
        <lane id=":1572_6_1" index="1" speed="13.89" length="20.80" shape="1189.60,1598.40 1210.40,1598.40"/>
    </edge>
    <edge id=":1572_8" function="internal">
        <lane id=":1572_8_0" index="0" speed="9.26" length="5.01" shape="1189.60,1598.40 1194.56,1599.11"/>
    </edge>
    <edge id=":1572_9" function="internal">
        <lane id=":1572_9_0" index="0" speed="9.26" length="14.34" shape="1194.56,1599.11 1194.85,1599.15 1198.60,1601.40 1200.85,1605.15 1201.60,1610.40"/>
    </edge>
    <edge id=":2_0" function="internal">
        <lane id=":2_0_0" index="0" speed="6.51" length="9.03" shape="1995.20,1410.40 1994.85,1407.95 1993.80,1406.20 1992.05,1405.15 1989.60,1404.80"/>
    </edge>
    <edge id=":2_1" function="internal">
        <lane id=":2_1_0" index="0" speed="13.89" length="20.80" shape="1995.20,1410.40 1995.20,1389.60"/>
        <lane id=":2_1_1" index="1" speed="13.89" length="20.80" shape="1998.40,1410.40 1998.40,1389.60"/>
    </edge>
    <edge id=":2_3" function="internal">
        <lane id=":2_3_0" index="0" speed="13.89" length="20.80" shape="2004.80,1389.60 2004.80,1410.40"/>
        <lane id=":2_3_1" index="1" speed="13.89" length="20.80" shape="2001.60,1389.60 2001.60,1410.40"/>
    </edge>
    <edge id=":2_5" function="internal">
        <lane id=":2_5_0" index="0" speed="9.26" length="5.01" shape="2001.60,1389.60 2000.89,1394.56"/>
    </edge>
    <edge id=":2_9" function="internal">
        <lane id=":2_9_0" index="0" speed="9.26" length="14.34" shape="2000.89,1394.56 2000.85,1394.85 1998.60,1398.60 1994.85,1400.85 1989.60,1401.60"/>
    </edge>
    <edge id=":2_6" function="internal">
        <lane id=":2_6_0" index="0" speed="6.51" length="9.03" shape="1989.60,1395.20 1992.05,1394.85 1993.80,1393.80 1994.85,1392.05 1995.20,1389.60"/>
        <lane id=":2_6_1" index="1" speed="8.00" length="14.19" shape="1989.60,1398.40 1993.45,1397.85 1996.20,1396.20 1997.85,1393.45 1998.40,1389.60"/>
    </edge>
    <edge id=":2_8" function="internal">
        <lane id=":2_8_0" index="0" speed="9.26" length="19.35" shape="1989.60,1398.40 1994.85,1399.15 1998.60,1401.40 2000.85,1405.15 2001.60,1410.40"/>
    </edge>
    <edge id=":20_0" function="internal">
        <lane id=":20_0_0" index="0" speed="6.51" length="9.03" shape="1995.20,1210.40 1994.85,1207.95 1993.80,1206.20 1992.05,1205.15 1989.60,1204.80"/>
    </edge>
    <edge id=":20_1" function="internal">
        <lane id=":20_1_0" index="0" speed="13.89" length="20.80" shape="1995.20,1210.40 1995.20,1189.60"/>
        <lane id=":20_1_1" index="1" speed="13.89" length="20.80" shape="1998.40,1210.40 1998.40,1189.60"/>
    </edge>
    <edge id=":20_3" function="internal">
        <lane id=":20_3_0" index="0" speed="13.89" length="20.80" shape="2004.80,1189.60 2004.80,1210.40"/>
        <lane id=":20_3_1" index="1" speed="13.89" length="20.80" shape="2001.60,1189.60 2001.60,1210.40"/>
    </edge>
    <edge id=":20_5" function="internal">
        <lane id=":20_5_0" index="0" speed="9.26" length="5.01" shape="2001.60,1189.60 2000.89,1194.56"/>
    </edge>
    <edge id=":20_9" function="internal">
        <lane id=":20_9_0" index="0" speed="9.26" length="14.34" shape="2000.89,1194.56 2000.85,1194.85 1998.60,1198.60 1994.85,1200.85 1989.60,1201.60"/>
    </edge>
    <edge id=":20_6" function="internal">
        <lane id=":20_6_0" index="0" speed="6.51" length="9.03" shape="1989.60,1195.20 1992.05,1194.85 1993.80,1193.80 1994.85,1192.05 1995.20,1189.60"/>
        <lane id=":20_6_1" index="1" speed="8.00" length="14.19" shape="1989.60,1198.40 1993.45,1197.85 1996.20,1196.20 1997.85,1193.45 1998.40,1189.60"/>
    </edge>
    <edge id=":20_8" function="internal">
        <lane id=":20_8_0" index="0" speed="9.26" length="19.35" shape="1989.60,1198.40 1994.85,1199.15 1998.60,1201.40 2000.85,1205.15 2001.60,1210.40"/>
    </edge>
    <edge id=":257_0" function="internal">
        <lane id=":257_0_0" index="0" speed="13.89" length="20.80" shape="1795.20,2210.40 1795.20,2189.60"/>
        <lane id=":257_0_1" index="1" speed="13.89" length="20.80" shape="1798.40,2210.40 1798.40,2189.60"/>
    </edge>
    <edge id=":257_2" function="internal">
        <lane id=":257_2_0" index="0" speed="9.26" length="5.01" shape="1798.40,2210.40 1799.11,2205.44"/>
    </edge>
    <edge id=":257_9" function="internal">
        <lane id=":257_9_0" index="0" speed="9.26" length="14.34" shape="1799.11,2205.44 1799.15,2205.15 1801.40,2201.40 1805.15,2199.15 1810.40,2198.40"/>
    </edge>
    <edge id=":257_3" function="internal">
        <lane id=":257_3_0" index="0" speed="6.51" length="9.03" shape="1810.40,2204.80 1807.95,2205.15 1806.20,2206.20 1805.15,2207.95 1804.80,2210.40"/>
        <lane id=":257_3_1" index="1" speed="8.00" length="14.19" shape="1810.40,2201.60 1806.55,2202.15 1803.80,2203.80 1802.15,2206.55 1801.60,2210.40"/>
    </edge>
    <edge id=":257_5" function="internal">
        <lane id=":257_5_0" index="0" speed="9.26" length="19.35" shape="1810.40,2201.60 1805.15,2200.85 1801.40,2198.60 1799.15,2194.85 1798.40,2189.60"/>
    </edge>
    <edge id=":257_6" function="internal">
        <lane id=":257_6_0" index="0" speed="6.51" length="9.03" shape="1804.80,2189.60 1805.15,2192.05 1806.20,2193.80 1807.95,2194.85 1810.40,2195.20"/>
    </edge>
    <edge id=":257_7" function="internal">
        <lane id=":257_7_0" index="0" speed="13.89" length="20.80" shape="1804.80,2189.60 1804.80,2210.40"/>
        <lane id=":257_7_1" index="1" speed="13.89" length="20.80" shape="1801.60,2189.60 1801.60,2210.40"/>
    </edge>
    <edge id=":26_0" function="internal">
        <lane id=":26_0_0" index="0" speed="13.89" length="0.10" shape="1995.20,800.00 1995.20,800.00"/>
        <lane id=":26_0_1" index="1" speed="13.89" length="0.10" shape="1998.40,800.00 1998.40,800.00"/>
    </edge>
    <edge id=":26_2" function="internal">
        <lane id=":26_2_0" index="0" speed="13.89" length="0.10" shape="2004.80,800.00 2004.80,800.00"/>
        <lane id=":26_2_1" index="1" speed="13.89" length="0.10" shape="2001.60,800.00 2001.60,800.00"/>
    </edge>
    <edge id=":269_0" function="internal">
        <lane id=":269_0_0" index="0" speed="6.51" length="9.03" shape="1795.20,2410.40 1794.85,2407.95 1793.80,2406.20 1792.05,2405.15 1789.60,2404.80"/>
    </edge>
    <edge id=":269_1" function="internal">
        <lane id=":269_1_0" index="0" speed="13.89" length="20.80" shape="1795.20,2410.40 1795.20,2389.60"/>
        <lane id=":269_1_1" index="1" speed="13.89" length="20.80" shape="1798.40,2410.40 1798.40,2389.60"/>
    </edge>
    <edge id=":269_3" function="internal">
        <lane id=":269_3_0" index="0" speed="9.26" length="5.01" shape="1798.40,2410.40 1799.11,2405.44"/>
    </edge>
    <edge id=":269_16" function="internal">
        <lane id=":269_16_0" index="0" speed="9.26" length="14.34" shape="1799.11,2405.44 1799.15,2405.15 1801.40,2401.40 1805.15,2399.15 1810.40,2398.40"/>
    </edge>
    <edge id=":269_4" function="internal">
        <lane id=":269_4_0" index="0" speed="6.51" length="9.03" shape="1810.40,2404.80 1807.95,2405.15 1806.20,2406.20 1805.15,2407.95 1804.80,2410.40"/>
    </edge>
    <edge id=":269_5" function="internal">
        <lane id=":269_5_0" index="0" speed="13.89" length="20.80" shape="1810.40,2404.80 1789.60,2404.80"/>
        <lane id=":269_5_1" index="1" speed="13.89" length="20.80" shape="1810.40,2401.60 1789.60,2401.60"/>
    </edge>
    <edge id=":269_7" function="internal">
        <lane id=":269_7_0" index="0" speed="9.26" length="5.01" shape="1810.40,2401.60 1805.44,2400.89"/>
    </edge>
    <edge id=":269_17" function="internal">
        <lane id=":269_17_0" index="0" speed="9.26" length="14.34" shape="1805.44,2400.89 1805.15,2400.85 1801.40,2398.60 1799.15,2394.85 1798.40,2389.60"/>
    </edge>
    <edge id=":269_8" function="internal">
        <lane id=":269_8_0" index="0" speed="6.51" length="9.03" shape="1804.80,2389.60 1805.15,2392.05 1806.20,2393.80 1807.95,2394.85 1810.40,2395.20"/>
    </edge>
    <edge id=":269_9" function="internal">
        <lane id=":269_9_0" index="0" speed="13.89" length="20.80" shape="1804.80,2389.60 1804.80,2410.40"/>
        <lane id=":269_9_1" index="1" speed="13.89" length="20.80" shape="1801.60,2389.60 1801.60,2410.40"/>
    </edge>
    <edge id=":269_11" function="internal">
        <lane id=":269_11_0" index="0" speed="9.26" length="5.01" shape="1801.60,2389.60 1800.89,2394.56"/>
    </edge>
    <edge id=":269_18" function="internal">
        <lane id=":269_18_0" index="0" speed="9.26" length="14.34" shape="1800.89,2394.56 1800.85,2394.85 1798.60,2398.60 1794.85,2400.85 1789.60,2401.60"/>
    </edge>
    <edge id=":269_12" function="internal">
        <lane id=":269_12_0" index="0" speed="6.51" length="9.03" shape="1789.60,2395.20 1792.05,2394.85 1793.80,2393.80 1794.85,2392.05 1795.20,2389.60"/>
    </edge>
    <edge id=":269_13" function="internal">
        <lane id=":269_13_0" index="0" speed="13.89" length="20.80" shape="1789.60,2395.20 1810.40,2395.20"/>
        <lane id=":269_13_1" index="1" speed="13.89" length="20.80" shape="1789.60,2398.40 1810.40,2398.40"/>
    </edge>
    <edge id=":269_15" function="internal">
        <lane id=":269_15_0" index="0" speed="9.26" length="5.01" shape="1789.60,2398.40 1794.56,2399.11"/>
    </edge>
    <edge id=":269_19" function="internal">
        <lane id=":269_19_0" index="0" speed="9.26" length="14.34" shape="1794.56,2399.11 1794.85,2399.15 1798.60,2401.40 1800.85,2405.15 1801.60,2410.40"/>
    </edge>
    <edge id=":274_0" function="internal">
        <lane id=":274_0_0" index="0" speed="6.51" length="9.03" shape="1795.20,1010.40 1794.85,1007.95 1793.80,1006.20 1792.05,1005.15 1789.60,1004.80"/>
    </edge>
    <edge id=":274_1" function="internal">
        <lane id=":274_1_0" index="0" speed="13.89" length="20.80" shape="1795.20,1010.40 1795.20,989.60"/>
        <lane id=":274_1_1" index="1" speed="13.89" length="20.80" shape="1798.40,1010.40 1798.40,989.60"/>
    </edge>
    <edge id=":274_3" function="internal">
        <lane id=":274_3_0" index="0" speed="13.89" length="20.80" shape="1804.80,989.60 1804.80,1010.40"/>
        <lane id=":274_3_1" index="1" speed="13.89" length="20.80" shape="1801.60,989.60 1801.60,1010.40"/>
    </edge>
    <edge id=":274_5" function="internal">
        <lane id=":274_5_0" index="0" speed="9.26" length="5.01" shape="1801.60,989.60 1800.89,994.56"/>
    </edge>
    <edge id=":274_9" function="internal">
        <lane id=":274_9_0" index="0" speed="9.26" length="14.34" shape="1800.89,994.56 1800.85,994.85 1798.60,998.60 1794.85,1000.85 1789.60,1001.60"/>
    </edge>
    <edge id=":274_6" function="internal">
        <lane id=":274_6_0" index="0" speed="6.51" length="9.03" shape="1789.60,995.20 1792.05,994.85 1793.80,993.80 1794.85,992.05 1795.20,989.60"/>
        <lane id=":274_6_1" index="1" speed="8.00" length="14.19" shape="1789.60,998.40 1793.45,997.85 1796.20,996.20 1797.85,993.45 1798.40,989.60"/>
    </edge>
    <edge id=":274_8" function="internal">
        <lane id=":274_8_0" index="0" speed="9.26" length="19.35" shape="1789.60,998.40 1794.85,999.15 1798.60,1001.40 1800.85,1005.15 1801.60,1010.40"/>
    </edge>
    <edge id=":288_0" function="internal">