<?xml version="1.0" encoding="UTF-8"?>

<!-- generated on 2025-03-09 19:55:39.858401 by randomTrips.py v1_19_0+1770-8bb5c24c187
<configuration>
    <net-file value="random_subnetwork_2.net.xml"/>
    <output-trip-file value="random_subnetwork_2_light.trips.xml"/>
    <fringe-factor value="100"/>
    <min-distance value="800.0"/>
    <remove-loops value="True"/>
    <validate value="True"/>
    <period value="2.4173"/>
    <random-depart value="True"/>
    <binomial value="4"/>
</configuration>
-->

<!-- generated on 2025-03-09 19:55:39 by Eclipse SUMO duarouter Version v1_19_0+1770-8bb5c24c187
<configuration xmlns:xsi="http://www.w3.org/2001/XMLSchema-instance" xsi:noNamespaceSchemaLocation="http://sumo.dlr.de/xsd/duarouterConfiguration.xsd">

    <input>
        <net-file value="random_subnetwork_2.net.xml"/>
        <route-files value="random_subnetwork_2_light.trips.xml"/>
    </input>

    <output>
        <output-file value="random_subnetwork_2_light.trips.xml.tmp"/>
        <alternatives-output value="NUL"/>
        <write-trips value="true"/>
    </output>

    <processing>
        <remove-loops value="true"/>
    </processing>

    <time>
        <begin value="0.0"/>
        <end value="3600.0"/>
    </time>

    <report>
        <no-warnings value="true"/>
        <ignore-errors value="true"/>
        <no-step-log value="true"/>
    </report>

</duarouterConfiguration>
-->

<routes xmlns:xsi="http://www.w3.org/2001/XMLSchema-instance" xsi:noNamespaceSchemaLocation="http://sumo.dlr.de/xsd/routes_file.xsd">
    <trip id="0" depart="0.00" from="-27" to="1222"/>
    <trip id="4" depart="5.00" from="-27" to="1222"/>
    <trip id="5" depart="8.00" from="-678" to="275"/>
    <trip id="8" depart="27.00" from="-678" to="270"/>
    <trip id="18" depart="45.00" from="-1926" to="258"/>
    <trip id="19" depart="46.00" from="-678" to="275"/>
    <trip id="23" depart="52.00" from="-678" to="27"/>
    <trip id="25" depart="60.00" from="-275" to="270"/>
    <trip id="26" depart="63.00" from="-270" to="1926"/>
    <trip id="27" depart="64.00" from="-678" to="27"/>
    <trip id="28" depart="73.00" from="-275" to="270"/>
    <trip id="29" depart="75.00" from="-1222" to="270"/>
    <trip id="30" depart="78.00" from="-678" to="497"/>
    <trip id="34" depart="91.00" from="-678" to="1222"/>
    <trip id="35" depart="92.00" from="-1926" to="1222"/>
    <trip id="36" depart="92.00" from="-1222" to="301"/>
    <trip id="39" depart="102.00" from="-678" to="1222"/>
    <trip id="40" depart="105.00" from="-27" to="1222"/>
    <trip id="43" depart="107.00" from="-270" to="1926"/>
    <trip id="45" depart="123.00" from="-1222" to="27"/>
    <trip id="49" depart="127.00" from="-678" to="270"/>
    <trip id="50" depart="135.00" from="-1222" to="301"/>
    <trip id="51" depart="140.00" from="-301" to="1926"/>
    <trip id="54" depart="155.00" from="-275" to="678"/>
    <trip id="55" depart="156.00" from="-1222" to="1926"/>
    <trip id="56" depart="163.00" from="-270" to="678"/>
    <trip id="59" depart="175.00" from="-270" to="301"/>
    <trip id="60" depart="177.00" from="-1222" to="1926"/>
    <trip id="61" depart="179.00" from="-1222" to="270"/>
    <trip id="66" depart="192.00" from="-789" to="503"/>
    <trip id="67" depart="194.00" from="-1926" to="27"/>
    <trip id="69" depart="199.00" from="-27" to="678"/>
    <trip id="70" depart="201.00" from="-27" to="1926"/>
    <trip id="74" depart="215.00" from="-301" to="1222"/>
    <trip id="75" depart="220.00" from="-1926" to="301"/>
    <trip id="80" depart="233.00" from="-497" to="303"/>
    <trip id="82" depart="239.00" from="-678" to="27"/>
    <trip id="85" depart="249.00" from="-270" to="1222"/>
    <trip id="92" depart="258.00" from="-301" to="1222"/>
    <trip id="93" depart="263.00" from="-497" to="678"/>
    <trip id="94" depart="264.00" from="-1926" to="275"/>
    <trip id="95" depart="264.00" from="-678" to="497"/>
    <trip id="96" depart="267.00" from="-1926" to="301"/>
    <trip id="97" depart="269.00" from="-270" to="301"/>
    <trip id="98" depart="272.00" from="-1926" to="1222"/>
    <trip id="104" depart="286.00" from="-1926" to="497"/>
    <trip id="105" depart="288.00" from="-1222" to="518"/>
    <trip id="107" depart="292.00" from="-497" to="270"/>
    <trip id="108" depart="298.00" from="-1926" to="301"/>
    <trip id="109" depart="299.00" from="-1222" to="1926"/>
    <trip id="114" depart="306.00" from="-1926" to="301"/>
    <trip id="117" depart="325.00" from="-1926" to="275"/>
    <trip id="121" depart="335.00" from="-678" to="497"/>
    <trip id="122" depart="338.00" from="-497" to="270"/>
    <trip id="126" depart="355.00" from="-1222" to="270"/>
    <trip id="128" depart="356.00" from="-678" to="275"/>
    <trip id="129" depart="359.00" from="-678" to="27"/>
    <trip id="130" depart="362.00" from="-27" to="1926"/>
    <trip id="131" depart="365.00" from="-270" to="678"/>
    <trip id="134" depart="371.00" from="-1926" to="275"/>
    <trip id="136" depart="381.00" from="-1926" to="497"/>
    <trip id="137" depart="385.00" from="-678" to="275"/>
    <trip id="138" depart="386.00" from="-270" to="301"/>
    <trip id="140" depart="389.00" from="-1222" to="678"/>
    <trip id="141" depart="389.00" from="-270" to="1926"/>
    <trip id="143" depart="392.00" from="-1222" to="27"/>
    <trip id="144" depart="395.00" from="-275" to="678"/>
    <trip id="145" depart="398.00" from="-1222" to="301"/>
    <trip id="148" depart="407.00" from="-1222" to="1926"/>
    <trip id="149" depart="412.00" from="-27" to="270"/>
    <trip id="153" depart="419.00" from="-27" to="678"/>
    <trip id="157" depart="422.00" from="-270" to="1222"/>
    <trip id="158" depart="423.00" from="-275" to="303"/>
    <trip id="160" depart="425.00" from="-301" to="1222"/>
    <trip id="164" depart="447.00" from="-1222" to="270"/>
    <trip id="165" depart="448.00" from="-275" to="1926"/>
    <trip id="166" depart="448.00" from="-497" to="1926"/>
    <trip id="168" depart="451.00" from="154" to="270"/>
    <trip id="169" depart="452.00" from="-270" to="27"/>
    <trip id="173" depart="461.00" from="-275" to="1926"/>
    <trip id="176" depart="471.00" from="-678" to="27"/>
    <trip id="179" depart="482.00" from="-497" to="678"/>
    <trip id="184" depart="493.00" from="-497" to="1926"/>
    <trip id="185" depart="494.00" from="-1222" to="301"/>
    <trip id="186" depart="495.00" from="-1926" to="275"/>
    <trip id="187" depart="499.00" from="-1926" to="497"/>
    <trip id="191" depart="510.00" from="-1222" to="27"/>
    <trip id="193" depart="511.00" from="-275" to="270"/>
    <trip id="194" depart="512.00" from="-270" to="1222"/>
    <trip id="196" depart="523.00" from="-27" to="1926"/>
    <trip id="197" depart="524.00" from="-275" to="1926"/>
    <trip id="200" depart="537.00" from="-275" to="1926"/>
    <trip id="204" depart="553.00" from="-270" to="678"/>
    <trip id="208" depart="562.00" from="-301" to="1222"/>
    <trip id="210" depart="566.00" from="-270" to="275"/>
    <trip id="214" depart="581.00" from="-678" to="1222"/>
    <trip id="219" depart="594.00" from="-27" to="266"/>
    <trip id="224" depart="605.00" from="-27" to="-518"/>
    <trip id="230" depart="619.00" from="-678" to="270"/>
    <trip id="231" depart="627.00" from="295" to="1926"/>
    <trip id="232" depart="633.00" from="-678" to="1222"/>
    <trip id="235" depart="639.00" from="-27" to="678"/>
    <trip id="237" depart="642.00" from="-1222" to="27"/>
    <trip id="238" depart="643.00" from="-497" to="1926"/>
    <trip id="239" depart="644.00" from="-275" to="678"/>
    <trip id="240" depart="644.00" from="-27" to="678"/>
    <trip id="242" depart="653.00" from="-27" to="270"/>
    <trip id="243" depart="654.00" from="-270" to="301"/>
    <trip id="244" depart="657.00" from="-1222" to="27"/>
    <trip id="245" depart="660.00" from="-303" to="1222"/>
    <trip id="247" depart="661.00" from="-27" to="270"/>
    <trip id="248" depart="661.00" from="-270" to="301"/>
    <trip id="249" depart="666.00" from="-270" to="27"/>
    <trip id="250" depart="669.00" from="-27" to="1926"/>
    <trip id="253" depart="674.00" from="-27" to="270"/>
    <trip id="256" depart="683.00" from="-301" to="1222"/>
    <trip id="258" depart="684.00" from="-270" to="1926"/>
    <trip id="259" depart="685.00" from="-270" to="678"/>
    <trip id="263" depart="697.00" from="-270" to="497"/>
    <trip id="264" depart="699.00" from="-275" to="678"/>
    <trip id="265" depart="699.00" from="-270" to="1222"/>
    <trip id="267" depart="702.00" from="-678" to="275"/>
    <trip id="269" depart="707.00" from="-1926" to="27"/>
    <trip id="270" depart="708.00" from="-275" to="1926"/>
    <trip id="272" depart="719.00" from="-1222" to="27"/>
    <trip id="273" depart="726.00" from="-678" to="270"/>
    <trip id="275" depart="730.00" from="-301" to="270"/>
    <trip id="278" depart="734.00" from="-27" to="678"/>
    <trip id="280" depart="740.00" from="-270" to="678"/>
    <trip id="282" depart="751.00" from="-275" to="270"/>
    <trip id="284" depart="754.00" from="-270" to="301"/>
    <trip id="285" depart="756.00" from="-1926" to="27"/>
    <trip id="286" depart="759.00" from="-270" to="1926"/>
    <trip id="287" depart="761.00" from="-1222" to="301"/>
    <trip id="288" depart="762.00" from="-270" to="301"/>
    <trip id="290" depart="769.00" from="-1926" to="497"/>
    <trip id="291" depart="770.00" from="-27" to="270"/>
    <trip id="292" depart="774.00" from="-1926" to="154"/>
    <trip id="296" depart="781.00" from="-497" to="1926"/>
    <trip id="300" depart="789.00" from="-678" to="27"/>
    <trip id="302" depart="792.00" from="-1222" to="270"/>
    <trip id="303" depart="793.00" from="-262" to="678"/>
    <trip id="304" depart="794.00" from="-27" to="15"/>
    <trip id="307" depart="805.00" from="-1926" to="27"/>
    <trip id="309" depart="809.00" from="-678" to="270"/>
    <trip id="313" depart="817.00" from="-270" to="1222"/>
    <trip id="315" depart="821.00" from="-497" to="678"/>
    <trip id="316" depart="825.00" from="-1222" to="678"/>
    <trip id="317" depart="825.00" from="-1926" to="270"/>
    <trip id="319" depart="826.00" from="-1222" to="27"/>
    <trip id="320" depart="831.00" from="-275" to="270"/>
    <trip id="322" depart="832.00" from="-678" to="497"/>
    <trip id="323" depart="836.00" from="-1926" to="301"/>
    <trip id="327" depart="848.00" from="-1926" to="1222"/>
    <trip id="328" depart="850.00" from="-275" to="1926"/>
    <trip id="331" depart="856.00" from="-275" to="1926"/>
    <trip id="334" depart="863.00" from="-270" to="301"/>
    <trip id="335" depart="865.00" from="-497" to="1926"/>
    <trip id="336" depart="867.00" from="-1926" to="-11"/>
    <trip id="337" depart="870.00" from="-275" to="270"/>
    <trip id="339" depart="884.00" from="-27" to="1222"/>
    <trip id="341" depart="886.00" from="-270" to="1926"/>
    <trip id="342" depart="886.00" from="-1222" to="301"/>
    <trip id="346" depart="898.00" from="-301" to="1926"/>
    <trip id="348" depart="905.00" from="-275" to="270"/>
    <trip id="350" depart="911.00" from="-1926" to="1222"/>
    <trip id="351" depart="911.00" from="-270" to="275"/>
    <trip id="355" depart="924.00" from="-1222" to="270"/>
    <trip id="357" depart="932.00" from="-1222" to="678"/>
    <trip id="359" depart="935.00" from="-27" to="1222"/>
    <trip id="361" depart="940.00" from="-678" to="27"/>
    <trip id="362" depart="942.00" from="-678" to="27"/>
    <trip id="363" depart="944.00" from="-1222" to="678"/>
    <trip id="364" depart="952.00" from="-270" to="27"/>
    <trip id="365" depart="953.00" from="-270" to="27"/>
    <trip id="368" depart="955.00" from="-1926" to="301"/>
    <trip id="370" depart="958.00" from="-27" to="1926"/>
    <trip id="371" depart="962.00" from="-301" to="1222"/>
    <trip id="372" depart="964.00" from="-1926" to="275"/>
    <trip id="373" depart="965.00" from="-497" to="270"/>
    <trip id="374" depart="965.00" from="-270" to="1926"/>
    <trip id="376" depart="967.00" from="-275" to="678"/>
    <trip id="377" depart="969.00" from="-1926" to="497"/>
    <trip id="378" depart="974.00" from="-1926" to="275"/>
    <trip id="379" depart="975.00" from="-27" to="270"/>
    <trip id="380" depart="979.00" from="-27" to="270"/>
    <trip id="381" depart="980.00" from="-678" to="1222"/>
    <trip id="382" depart="982.00" from="-1926" to="515"/>
    <trip id="385" depart="986.00" from="-27" to="1926"/>
    <trip id="388" depart="988.00" from="-1926" to="1222"/>
    <trip id="393" depart="1008.00" from="-301" to="270"/>
    <trip id="394" depart="1011.00" from="-678" to="270"/>
    <trip id="395" depart="1018.00" from="-515" to="1926"/>
    <trip id="400" depart="1029.00" from="-497" to="1926"/>
    <trip id="401" depart="1030.00" from="-678" to="27"/>
    <trip id="405" depart="1044.00" from="-1222" to="301"/>
    <trip id="408" depart="1055.00" from="-1926" to="270"/>
    <trip id="411" depart="1071.00" from="-270" to="27"/>
    <trip id="412" depart="1079.00" from="-678" to="1222"/>
    <trip id="414" depart="1084.00" from="-1222" to="27"/>
    <trip id="415" depart="1089.00" from="-1926" to="270"/>
    <trip id="416" depart="1093.00" from="-497" to="678"/>
    <trip id="422" depart="1119.00" from="-1926" to="497"/>
    <trip id="424" depart="1121.00" from="-270" to="497"/>
    <trip id="426" depart="1124.00" from="-1222" to="301"/>
    <trip id="427" depart="1125.00" from="-678" to="1222"/>
    <trip id="428" depart="1127.00" from="-1926" to="1222"/>
    <trip id="430" depart="1133.00" from="289" to="270"/>
    <trip id="431" depart="1133.00" from="-678" to="275"/>
    <trip id="432" depart="1134.00" from="-270" to="1926"/>
    <trip id="436" depart="1147.00" from="-27" to="270"/>
    <trip id="437" depart="1151.00" from="-678" to="27"/>
    <trip id="438" depart="1152.00" from="-301" to="1222"/>
    <trip id="439" depart="1152.00" from="-497" to="270"/>
    <trip id="444" depart="1161.00" from="-270" to="27"/>
    <trip id="446" depart="1171.00" from="-678" to="27"/>
    <trip id="449" depart="1174.00" from="-1222" to="27"/>
    <trip id="453" depart="1183.00" from="-1222" to="301"/>
    <trip id="455" depart="1186.00" from="-497" to="678"/>
    <trip id="456" depart="1188.00" from="-497" to="1926"/>
    <trip id="458" depart="1198.00" from="-27" to="270"/>
    <trip id="463" depart="1216.00" from="-1926" to="497"/>
    <trip id="466" depart="1219.00" from="-270" to="301"/>
    <trip id="467" depart="1220.00" from="-678" to="3"/>
    <trip id="472" depart="1231.00" from="-270" to="678"/>
    <trip id="473" depart="1233.00" from="-270" to="27"/>
    <trip id="474" depart="1236.00" from="-1926" to="515"/>
    <trip id="476" depart="1237.00" from="-270" to="27"/>
    <trip id="477" depart="1239.00" from="-678" to="27"/>
    <trip id="480" depart="1245.00" from="-1926" to="301"/>
    <trip id="482" depart="1253.00" from="-27" to="678"/>
    <trip id="485" depart="1259.00" from="-1926" to="27"/>
    <trip id="488" depart="1264.00" from="-678" to="275"/>
    <trip id="489" depart="1265.00" from="-1926" to="1222"/>
    <trip id="492" depart="1279.00" from="-497" to="678"/>
    <trip id="493" depart="1281.00" from="-678" to="275"/>
    <trip id="494" depart="1282.00" from="-1926" to="497"/>
    <trip id="497" depart="1294.00" from="-27" to="1926"/>
    <trip id="498" depart="1296.00" from="-43" to="270"/>
    <trip id="499" depart="1298.00" from="-480" to="1222"/>
    <trip id="500" depart="1303.00" from="-270" to="1222"/>
    <trip id="501" depart="1305.00" from="-270" to="1222"/>
    <trip id="503" depart="1308.00" from="-1926" to="301"/>
    <trip id="504" depart="1310.00" from="-301" to="1222"/>
    <trip id="508" depart="1326.00" from="-1222" to="1926"/>
    <trip id="509" depart="1327.00" from="-270" to="301"/>
    <trip id="510" depart="1331.00" from="-270" to="678"/>
    <trip id="511" depart="1332.00" from="-1222" to="270"/>
    <trip id="515" depart="1344.00" from="-678" to="270"/>
    <trip id="517" depart="1347.00" from="-27" to="678"/>
    <trip id="519" depart="1348.00" from="-1926" to="497"/>
    <trip id="521" depart="1352.00" from="-301" to="1222"/>
    <trip id="526" depart="1361.00" from="-27" to="1926"/>
    <trip id="529" depart="1373.00" from="-270" to="27"/>
    <trip id="531" depart="1375.00" from="-518" to="262"/>
    <trip id="532" depart="1375.00" from="-1926" to="27"/>
    <trip id="533" depart="1390.00" from="-1926" to="270"/>
    <trip id="535" depart="1391.00" from="-270" to="27"/>
    <trip id="537" depart="1396.00" from="-497" to="678"/>
    <trip id="538" depart="1398.00" from="-1926" to="1222"/>
    <trip id="540" depart="1399.00" from="289" to="678"/>
    <trip id="542" depart="1404.00" from="-1222" to="518"/>
    <trip id="543" depart="1406.00" from="-497" to="266"/>
    <trip id="546" depart="1410.00" from="-270" to="1926"/>
    <trip id="547" depart="1411.00" from="-497" to="270"/>
    <trip id="549" depart="1416.00" from="-497" to="518"/>
    <trip id="551" depart="1417.00" from="-678" to="270"/>
    <trip id="552" depart="1421.00" from="-1926" to="301"/>
    <trip id="553" depart="1428.00" from="-275" to="1926"/>
    <trip id="555" depart="1433.00" from="-1926" to="497"/>
    <trip id="558" depart="1444.00" from="-270" to="1926"/>
    <trip id="559" depart="1445.00" from="-1926" to="497"/>
    <trip id="560" depart="1449.00" from="-270" to="275"/>
    <trip id="564" depart="1459.00" from="-270" to="27"/>
    <trip id="565" depart="1461.00" from="-678" to="275"/>
    <trip id="566" depart="1464.00" from="-270" to="1222"/>
    <trip id="569" depart="1468.00" from="-1222" to="1926"/>
    <trip id="573" depart="1471.00" from="-497" to="678"/>
    <trip id="574" depart="1473.00" from="-270" to="27"/>
    <trip id="577" depart="1477.00" from="-1222" to="678"/>
    <trip id="579" depart="1484.00" from="-15" to="27"/>
    <trip id="582" depart="1498.00" from="-27" to="1926"/>
    <trip id="583" depart="1498.00" from="-515" to="1926"/>
    <trip id="584" depart="1499.00" from="-270" to="1926"/>
    <trip id="585" depart="1501.00" from="-27" to="678"/>
    <trip id="587" depart="1502.00" from="-270" to="678"/>
    <trip id="588" depart="1503.00" from="-497" to="270"/>
    <trip id="589" depart="1503.00" from="-27" to="678"/>
    <trip id="591" depart="1511.00" from="-270" to="275"/>
    <trip id="592" depart="1511.00" from="-678" to="27"/>
    <trip id="594" depart="1523.00" from="-1926" to="270"/>
    <trip id="595" depart="1524.00" from="-1222" to="678"/>
    <trip id="596" depart="1527.00" from="-1926" to="270"/>
    <trip id="598" depart="1547.00" from="-295" to="275"/>
    <trip id="599" depart="1550.00" from="-275" to="270"/>
    <trip id="600" depart="1552.00" from="-1926" to="497"/>
    <trip id="601" depart="1552.00" from="-27" to="678"/>
    <trip id="602" depart="1556.00" from="-270" to="27"/>
    <trip id="604" depart="1569.00" from="-678" to="270"/>
    <trip id="605" depart="1569.00" from="-1926" to="1222"/>
    <trip id="606" depart="1570.00" from="-1926" to="3"/>
    <trip id="608" depart="1576.00" from="-270" to="1926"/>
    <trip id="609" depart="1577.00" from="-270" to="1926"/>
    <trip id="610" depart="1577.00" from="-301" to="270"/>
    <trip id="612" depart="1592.00" from="-270" to="497"/>
    <trip id="614" depart="1597.00" from="-275" to="270"/>
    <trip id="615" depart="1598.00" from="-27" to="678"/>
    <trip id="617" depart="1608.00" from="-1926" to="-15"/>
    <trip id="618" depart="1609.00" from="-301" to="1222"/>
    <trip id="619" depart="1610.00" from="-275" to="270"/>
    <trip id="620" depart="1610.00" from="-1926" to="497"/>
    <trip id="621" depart="1617.00" from="-1926" to="497"/>
    <trip id="623" depart="1619.00" from="-678" to="154"/>
    <trip id="625" depart="1625.00" from="-1222" to="678"/>
    <trip id="626" depart="1625.00" from="-497" to="1926"/>
    <trip id="629" depart="1637.00" from="-270" to="1926"/>
    <trip id="630" depart="1637.00" from="-258" to="27"/>
    <trip id="632" depart="1644.00" from="-301" to="1222"/>
    <trip id="634" depart="1647.00" from="-1926" to="27"/>
    <trip id="635" depart="1648.00" from="-1926" to="301"/>
    <trip id="636" depart="1650.00" from="-1926" to="301"/>
    <trip id="637" depart="1651.00" from="-270" to="27"/>
    <trip id="639" depart="1661.00" from="-1222" to="301"/>
    <trip id="641" depart="1670.00" from="-27" to="270"/>
    <trip id="642" depart="1673.00" from="-678" to="275"/>
    <trip id="646" depart="1684.00" from="-1926" to="789"/>
    <trip id="648" depart="1688.00" from="-1926" to="27"/>
    <trip id="650" depart="1690.00" from="-27" to="1222"/>
    <trip id="654" depart="1700.00" from="-275" to="270"/>
    <trip id="655" depart="1700.00" from="-1926" to="1222"/>
    <trip id="656" depart="1701.00" from="-275" to="270"/>
    <trip id="659" depart="1703.00" from="-1222" to="678"/>
    <trip id="660" depart="1704.00" from="-27" to="1222"/>
    <trip id="662" depart="1706.00" from="-1926" to="270"/>
    <trip id="665" depart="1711.00" from="-1926" to="1222"/>
    <trip id="666" depart="1712.00" from="-678" to="27"/>
    <trip id="667" depart="1712.00" from="-270" to="1222"/>
    <trip id="668" depart="1713.00" from="-275" to="270"/>
    <trip id="670" depart="1719.00" from="-270" to="1926"/>
    <trip id="671" depart="1719.00" from="-27" to="678"/>
    <trip id="674" depart="1725.00" from="-1222" to="270"/>
    <trip id="675" depart="1725.00" from="-1926" to="301"/>
    <trip id="676" depart="1728.00" from="-301" to="1926"/>
    <trip id="677" depart="1728.00" from="-480" to="1222"/>
    <trip id="678" depart="1732.00" from="-275" to="1926"/>
    <trip id="682" depart="1743.00" from="-1926" to="1222"/>
    <trip id="683" depart="1744.00" from="-1926" to="27"/>
    <trip id="685" depart="1746.00" from="-678" to="27"/>
    <trip id="686" depart="1747.00" from="-1926" to="497"/>
    <trip id="687" depart="1748.00" from="43" to="270"/>
    <trip id="688" depart="1748.00" from="-678" to="275"/>
    <trip id="689" depart="1750.00" from="-270" to="678"/>
    <trip id="692" depart="1760.00" from="-275" to="1926"/>
    <trip id="695" depart="1765.00" from="-678" to="27"/>
    <trip id="701" depart="1778.00" from="-678" to="27"/>
    <trip id="702" depart="1778.00" from="-678" to="497"/>
    <trip id="706" depart="1780.00" from="-1222" to="301"/>
    <trip id="707" depart="1783.00" from="-301" to="1926"/>
    <trip id="711" depart="1803.00" from="-1222" to="678"/>
    <trip id="713" depart="1804.00" from="-301" to="1222"/>
    <trip id="716" depart="1812.00" from="-275" to="678"/>
    <trip id="717" depart="1813.00" from="-678" to="270"/>
    <trip id="718" depart="1816.00" from="-275" to="1926"/>
    <trip id="719" depart="1817.00" from="-270" to="27"/>
    <trip id="720" depart="1818.00" from="-270" to="275"/>
    <trip id="721" depart="1821.00" from="-497" to="1926"/>
    <trip id="722" depart="1823.00" from="-270" to="-43"/>
    <trip id="724" depart="1826.00" from="-27" to="678"/>
    <trip id="726" depart="1826.00" from="-270" to="21"/>
    <trip id="728" depart="1828.00" from="-497" to="678"/>
    <trip id="730" depart="1833.00" from="-1926" to="27"/>
    <trip id="731" depart="1835.00" from="-1222" to="270"/>
    <trip id="732" depart="1836.00" from="-1926" to="301"/>
    <trip id="733" depart="1837.00" from="-154" to="678"/>
    <trip id="735" depart="1842.00" from="-1926" to="270"/>
    <trip id="738" depart="1853.00" from="258" to="1926"/>
    <trip id="740" depart="1856.00" from="295" to="1926"/>
    <trip id="741" depart="1858.00" from="-27" to="678"/>
    <trip id="746" depart="1862.00" from="-1926" to="1222"/>
    <trip id="747" depart="1862.00" from="-678" to="270"/>
    <trip id="749" depart="1864.00" from="-270" to="27"/>
    <trip id="751" depart="1870.00" from="-497" to="1926"/>
    <trip id="752" depart="1875.00" from="-1222" to="301"/>
    <trip id="754" depart="1880.00" from="-301" to="1926"/>
    <trip id="757" depart="1882.00" from="-270" to="1222"/>
    <trip id="758" depart="1882.00" from="-270" to="275"/>
    <trip id="759" depart="1887.00" from="-678" to="27"/>
    <trip id="760" depart="1888.00" from="-497" to="270"/>
    <trip id="762" depart="1893.00" from="-497" to="1926"/>
    <trip id="764" depart="1896.00" from="-270" to="678"/>
    <trip id="767" depart="1905.00" from="-497" to="-266"/>
    <trip id="768" depart="1909.00" from="-497" to="270"/>
    <trip id="770" depart="1913.00" from="-1222" to="27"/>
    <trip id="771" depart="1915.00" from="-678" to="497"/>
    <trip id="772" depart="1917.00" from="-678" to="1222"/>
    <trip id="773" depart="1917.00" from="-678" to="270"/>
    <trip id="777" depart="1922.00" from="-1926" to="301"/>
    <trip id="779" depart="1928.00" from="-1926" to="275"/>
    <trip id="781" depart="1931.00" from="-275" to="1926"/>
    <trip id="787" depart="1954.00" from="-497" to="678"/>
    <trip id="790" depart="1958.00" from="-1926" to="1222"/>
    <trip id="792" depart="1964.00" from="-1222" to="1926"/>
    <trip id="795" depart="1968.00" from="-1222" to="1926"/>
    <trip id="798" depart="1970.00" from="295" to="1222"/>
    <trip id="801" depart="1984.00" from="-1222" to="301"/>
    <trip id="802" depart="1984.00" from="-1926" to="27"/>
    <trip id="804" depart="1989.00" from="-678" to="270"/>
    <trip id="807" depart="1997.00" from="-1926" to="497"/>
    <trip id="809" depart="2004.00" from="-497" to="1926"/>
    <trip id="812" depart="2008.00" from="-497" to="678"/>
    <trip id="816" depart="2013.00" from="-27" to="270"/>
    <trip id="817" depart="2015.00" from="-1222" to="27"/>
    <trip id="822" depart="2020.00" from="-27" to="1926"/>
    <trip id="823" depart="2021.00" from="-27" to="-295"/>
    <trip id="824" depart="2021.00" from="-497" to="1926"/>
    <trip id="828" depart="2029.00" from="-301" to="1926"/>
    <trip id="829" depart="2036.00" from="-270" to="1926"/>
    <trip id="830" depart="2037.00" from="-1222" to="301"/>
    <trip id="831" depart="2041.00" from="-1926" to="1222"/>
    <trip id="832" depart="2044.00" from="-1926" to="270"/>
    <trip id="833" depart="2046.00" from="-270" to="301"/>
    <trip id="839" depart="2056.00" from="-270" to="27"/>
    <trip id="840" depart="2057.00" from="-27" to="1222"/>
    <trip id="843" depart="2066.00" from="-1926" to="497"/>
    <trip id="844" depart="2074.00" from="-301" to="1926"/>
    <trip id="845" depart="2076.00" from="-1926" to="497"/>
    <trip id="847" depart="2081.00" from="-678" to="275"/>
    <trip id="853" depart="2092.00" from="-1926" to="27"/>
    <trip id="854" depart="2092.00" from="-27" to="270"/>
    <trip id="856" depart="2098.00" from="-1926" to="1222"/>
    <trip id="857" depart="2099.00" from="-27" to="270"/>
    <trip id="858" depart="2100.00" from="-270" to="275"/>
    <trip id="859" depart="2106.00" from="-275" to="270"/>
    <trip id="860" depart="2108.00" from="-1926" to="1222"/>
    <trip id="863" depart="2111.00" from="-1926" to="275"/>
    <trip id="868" depart="2120.00" from="-27" to="270"/>
    <trip id="869" depart="2124.00" from="-27" to="1222"/>
    <trip id="871" depart="2129.00" from="-1926" to="27"/>
    <trip id="872" depart="2129.00" from="-497" to="1926"/>
    <trip id="874" depart="2135.00" from="-301" to="1222"/>
    <trip id="875" depart="2136.00" from="-678" to="270"/>
    <trip id="876" depart="2137.00" from="-1926" to="1222"/>
    <trip id="877" depart="2142.00" from="-270" to="1222"/>
    <trip id="879" depart="2147.00" from="-270" to="1222"/>
    <trip id="883" depart="2164.00" from="-678" to="27"/>
    <trip id="884" depart="2165.00" from="-275" to="270"/>
    <trip id="887" depart="2174.00" from="-1222" to="678"/>
    <trip id="888" depart="2176.00" from="-270" to="-154"/>
    <trip id="889" depart="2178.00" from="-270" to="301"/>
    <trip id="890" depart="2179.00" from="-262" to="1926"/>
    <trip id="893" depart="2186.00" from="-1926" to="27"/>
    <trip id="896" depart="2192.00" from="-1222" to="301"/>
    <trip id="897" depart="2192.00" from="-27" to="678"/>
    <trip id="898" depart="2197.00" from="-270" to="1222"/>
    <trip id="899" depart="2198.00" from="-678" to="1222"/>
    <trip id="900" depart="2199.00" from="-27" to="1926"/>
    <trip id="902" depart="2206.00" from="-270" to="678"/>
    <trip id="903" depart="2206.00" from="-678" to="275"/>
    <trip id="907" depart="2220.00" from="-1222" to="1926"/>
    <trip id="911" depart="2230.00" from="-270" to="1926"/>
    <trip id="912" depart="2230.00" from="-678" to="497"/>
    <trip id="914" depart="2235.00" from="-678" to="11"/>
    <trip id="915" depart="2236.00" from="-678" to="497"/>
    <trip id="916" depart="2248.00" from="-1926" to="1222"/>
    <trip id="918" depart="2251.00" from="-270" to="497"/>
    <trip id="919" depart="2266.00" from="-678" to="497"/>
    <trip id="920" depart="2270.00" from="-275" to="-515"/>
    <trip id="921" depart="2271.00" from="-1926" to="301"/>
    <trip id="922" depart="2272.00" from="-1926" to="27"/>
    <trip id="923" depart="2286.00" from="-1926" to="-295"/>
    <trip id="924" depart="2291.00" from="-518" to="275"/>
    <trip id="933" depart="2324.00" from="-275" to="1926"/>
    <trip id="934" depart="2325.00" from="-678" to="27"/>
    <trip id="936" depart="2332.00" from="-258" to="275"/>
    <trip id="938" depart="2340.00" from="-1926" to="497"/>
    <trip id="939" depart="2341.00" from="-1222" to="301"/>
    <trip id="943" depart="2353.00" from="-497" to="1926"/>
    <trip id="946" depart="2363.00" from="-678" to="497"/>
    <trip id="948" depart="2365.00" from="-497" to="270"/>
    <trip id="950" depart="2373.00" from="-1222" to="1926"/>
    <trip id="951" depart="2373.00" from="-497" to="270"/>
    <trip id="953" depart="2379.00" from="-1222" to="27"/>
    <trip id="954" depart="2383.00" from="-1926" to="275"/>