<?xml version="1.0" encoding="UTF-8"?>

<!-- generated on 2025-03-09 19:48:55.296147 by randomTrips.py v1_19_0+1770-8bb5c24c187
<configuration>
    <net-file value="random_subnetwork_1.net.xml"/>
    <output-trip-file value="random_subnetwork_1_medium.trips.xml"/>
    <fringe-factor value="100"/>
    <remove-loops value="True"/>
    <validate value="True"/>
    <period value="3.5081"/>
    <binomial value="4"/>
</configuration>
-->

<!-- generated on 2025-03-09 19:48:55 by Eclipse SUMO duarouter Version v1_19_0+1770-8bb5c24c187
<configuration xmlns:xsi="http://www.w3.org/2001/XMLSchema-instance" xsi:noNamespaceSchemaLocation="http://sumo.dlr.de/xsd/duarouterConfiguration.xsd">

    <input>
        <net-file value="random_subnetwork_1.net.xml"/>
        <route-files value="random_subnetwork_1_medium.trips.xml"/>
    </input>

    <output>
        <output-file value="random_subnetwork_1_medium.trips.xml.tmp"/>
        <alternatives-output value="NUL"/>
        <write-trips value="true"/>
    </output>

    <processing>
        <remove-loops value="true"/>
    </processing>

    <time>
        <begin value="0.0"/>
        <end value="3600.0"/>
    </time>

    <report>
        <no-warnings value="true"/>
        <ignore-errors value="true"/>
        <no-step-log value="true"/>
    </report>

</configuration>
-->

<routes xmlns:xsi="http://www.w3.org/2001/XMLSchema-instance" xsi:noNamespaceSchemaLocation="http://sumo.dlr.de/xsd/routes_file.xsd">
    <trip id="0" depart="0.00" from="-1912" to="1072"/>
    <trip id="1" depart="1.00" from="-1907" to="1916"/>
    <trip id="2" depart="2.00" from="-1907" to="315"/>
    <trip id="3" depart="3.00" from="-508" to="315"/>
    <trip id="4" depart="8.00" from="-1907" to="1907"/>
    <trip id="5" depart="14.00" from="-1912" to="1907"/>
    <trip id="6" depart="19.00" from="-1072" to="1918"/>
    <trip id="7" depart="20.00" from="-1916" to="508"/>
    <trip id="8" depart="21.00" from="-462" to="315"/>
    <trip id="9" depart="26.00" from="-1912" to="-270"/>
    <trip id="10" depart="27.00" from="270" to="508"/>
    <trip id="11" depart="28.00" from="-508" to="462"/>
    <trip id="12" depart="34.00" from="-462" to="1072"/>
    <trip id="13" depart="34.00" from="-1907" to="315"/>
    <trip id="14" depart="42.00" from="-786" to="462"/>
    <trip id="15" depart="44.00" from="-1916" to="508"/>
    <trip id="16" depart="48.00" from="-315" to="1912"/>
    <trip id="17" depart="58.00" from="-508" to="1907"/>
    <trip id="18" depart="63.00" from="-508" to="315"/>
    <trip id="19" depart="64.00" from="-1072" to="508"/>
    <trip id="20" depart="71.00" from="-462" to="1907"/>
    <trip id="21" depart="75.00" from="-1907" to="1907"/>
    <trip id="22" depart="81.00" from="270" to="1916"/>
    <trip id="23" depart="82.00" from="-462" to="1907"/>
    <trip id="24" depart="86.00" from="-1912" to="1912"/>
    <trip id="25" depart="91.00" from="-1907" to="1912"/>
    <trip id="26" depart="93.00" from="-508" to="462"/>
    <trip id="27" depart="95.00" from="-1912" to="462"/>
    <trip id="28" depart="103.00" from="-1916" to="1916"/>
    <trip id="29" depart="105.00" from="-1912" to="462"/>
    <trip id="30" depart="108.00" from="-1912" to="315"/>
    <trip id="31" depart="109.00" from="-1916" to="1916"/>
    <trip id="32" depart="110.00" from="-462" to="1072"/>
    <trip id="33" depart="110.00" from="-1916" to="1072"/>
    <trip id="34" depart="112.00" from="-315" to="786"/>
    <trip id="35" depart="114.00" from="-1907" to="-270"/>
    <trip id="36" depart="117.00" from="-1912" to="315"/>
    <trip id="37" depart="128.00" from="-508" to="1072"/>
    <trip id="38" depart="130.00" from="270" to="-270"/>
    <trip id="39" depart="139.00" from="-315" to="1907"/>
    <trip id="40" depart="142.00" from="270" to="1912"/>
    <trip id="41" depart="144.00" from="-1907" to="1916"/>
    <trip id="42" depart="150.00" from="-1916" to="1916"/>
    <trip id="43" depart="157.00" from="-1916" to="1907"/>
    <trip id="44" depart="160.00" from="-508" to="1912"/>
    <trip id="45" depart="181.00" from="-508" to="315"/>
    <trip id="46" depart="183.00" from="-315" to="1916"/>
    <trip id="47" depart="189.00" from="-1072" to="315"/>
    <trip id="48" depart="192.00" from="-508" to="1907"/>
    <trip id="49" depart="196.00" from="-508" to="508"/>
    <trip id="50" depart="202.00" from="-315" to="1912"/>
    <trip id="51" depart="213.00" from="-315" to="1912"/>
    <trip id="52" depart="215.00" from="270" to="1916"/>
    <trip id="53" depart="216.00" from="-508" to="508"/>
    <trip id="54" depart="221.00" from="-1912" to="1912"/>
    <trip id="55" depart="225.00" from="-508" to="1072"/>
    <trip id="56" depart="226.00" from="-508" to="1072"/>
    <trip id="57" depart="228.00" from="-508" to="1072"/>
    <trip id="58" depart="229.00" from="-1072" to="462"/>
    <trip id="59" depart="230.00" from="470" to="1916"/>
    <trip id="60" depart="232.00" from="-508" to="462"/>
    <trip id="61" depart="233.00" from="-1916" to="1912"/>
    <trip id="62" depart="235.00" from="-1912" to="315"/>
    <trip id="63" depart="241.00" from="-508" to="-270"/>
    <trip id="64" depart="249.00" from="270" to="462"/>
    <trip id="65" depart="250.00" from="1448" to="1916"/>
    <trip id="66" depart="251.00" from="-508" to="1072"/>
    <trip id="67" depart="253.00" from="-1907" to="1916"/>
    <trip id="68" depart="257.00" from="-1916" to="1916"/>
    <trip id="69" depart="257.00" from="-1912" to="1072"/>
    <trip id="70" depart="258.00" from="-508" to="1072"/>
    <trip id="71" depart="260.00" from="-1072" to="508"/>
    <trip id="72" depart="262.00" from="-1912" to="462"/>
    <trip id="73" depart="272.00" from="-1916" to="1907"/>
    <trip id="74" depart="273.00" from="-315" to="1907"/>
    <trip id="75" depart="273.00" from="-508" to="-270"/>
    <trip id="76" depart="277.00" from="-1072" to="508"/>
    <trip id="77" depart="281.00" from="-1072" to="315"/>
    <trip id="78" depart="291.00" from="-1912" to="462"/>
    <trip id="79" depart="303.00" from="-1072" to="1912"/>
    <trip id="80" depart="304.00" from="270" to="462"/>
    <trip id="81" depart="307.00" from="-1072" to="1072"/>
    <trip id="82" depart="309.00" from="-1916" to="462"/>
    <trip id="83" depart="310.00" from="-315" to="1072"/>
    <trip id="84" depart="312.00" from="-315" to="1916"/>
    <trip id="85" depart="314.00" from="-508" to="1907"/>
    <trip id="86" depart="316.00" from="-315" to="462"/>
    <trip id="87" depart="318.00" from="-508" to="1912"/>
    <trip id="88" depart="318.00" from="-1907" to="-270"/>
    <trip id="89" depart="327.00" from="-786" to="1907"/>
    <trip id="90" depart="331.00" from="-1072" to="462"/>
    <trip id="91" depart="340.00" from="-315" to="508"/>
    <trip id="92" depart="343.00" from="-315" to="1907"/>
    <trip id="93" depart="349.00" from="-1439" to="1072"/>
    <trip id="94" depart="355.00" from="-1072" to="315"/>
    <trip id="95" depart="358.00" from="-1916" to="1912"/>
    <trip id="96" depart="366.00" from="270" to="1916"/>
    <trip id="97" depart="367.00" from="-305" to="508"/>
    <trip id="98" depart="374.00" from="-1907" to="1907"/>
    <trip id="99" depart="380.00" from="-1916" to="508"/>
    <trip id="100" depart="383.00" from="270" to="-270"/>
    <trip id="101" depart="384.00" from="-1912" to="1072"/>
    <trip id="102" depart="385.00" from="-1907" to="1072"/>
    <trip id="103" depart="399.00" from="-1916" to="315"/>
    <trip id="104" depart="399.00" from="-315" to="508"/>
    <trip id="105" depart="406.00" from="-315" to="-270"/>
    <trip id="106" depart="415.00" from="-462" to="315"/>
    <trip id="107" depart="415.00" from="-1072" to="1907"/>
    <trip id="108" depart="423.00" from="-315" to="1916"/>
    <trip id="109" depart="426.00" from="-1916" to="462"/>
    <trip id="110" depart="428.00" from="-1912" to="-270"/>
    <trip id="111" depart="428.00" from="270" to="-270"/>
    <trip id="112" depart="434.00" from="-1072" to="1907"/>
    <trip id="113" depart="438.00" from="-1907" to="-270"/>
    <trip id="114" depart="438.00" from="-315" to="315"/>
    <trip id="115" depart="438.00" from="468" to="1912"/>
    <trip id="116" depart="439.00" from="-315" to="1907"/>
    <trip id="117" depart="442.00" from="270" to="508"/>
    <trip id="118" depart="453.00" from="270" to="508"/>
    <trip id="119" depart="466.00" from="-1072" to="462"/>
    <trip id="120" depart="468.00" from="-315" to="1907"/>
    <trip id="121" depart="469.00" from="-315" to="-270"/>
    <trip id="122" depart="470.00" from="-508" to="315"/>
    <trip id="123" depart="476.00" from="-1072" to="1072"/>
    <trip id="124" depart="478.00" from="-1907" to="462"/>
    <trip id="125" depart="479.00" from="-1072" to="508"/>
    <trip id="126" depart="480.00" from="270" to="1907"/>
    <trip id="127" depart="484.00" from="-1916" to="462"/>
    <trip id="128" depart="486.00" from="-1912" to="508"/>
    <trip id="129" depart="490.00" from="-1912" to="1907"/>
    <trip id="130" depart="492.00" from="-1912" to="-270"/>
    <trip id="131" depart="496.00" from="-1916" to="1912"/>
    <trip id="132" depart="514.00" from="270" to="315"/>
    <trip id="133" depart="516.00" from="-1912" to="1916"/>
    <trip id="134" depart="518.00" from="-1072" to="1912"/>
    <trip id="135" depart="526.00" from="-315" to="1072"/>
    <trip id="136" depart="528.00" from="-1072" to="462"/>
    <trip id="137" depart="537.00" from="-1912" to="-270"/>
    <trip id="138" depart="540.00" from="-508" to="1907"/>
    <trip id="139" depart="543.00" from="-462" to="1916"/>
    <trip id="140" depart="549.00" from="-1912" to="1907"/>
    <trip id="141" depart="558.00" from="-508" to="315"/>
    <trip id="142" depart="559.00" from="-315" to="1072"/>
    <trip id="143" depart="562.00" from="-1072" to="462"/>
    <trip id="144" depart="563.00" from="270" to="1072"/>
    <trip id="145" depart="568.00" from="-1916" to="-470"/>
    <trip id="146" depart="569.00" from="-462" to="462"/>
    <trip id="147" depart="570.00" from="-1916" to="315"/>
    <trip id="148" depart="572.00" from="-462" to="1912"/>
    <trip id="149" depart="580.00" from="270" to="508"/>
    <trip id="150" depart="584.00" from="-1072" to="1907"/>
    <trip id="151" depart="584.00" from="-1072" to="462"/>
    <trip id="152" depart="589.00" from="-462" to="315"/>
    <trip id="153" depart="589.00" from="-1072" to="1912"/>
    <trip id="154" depart="594.00" from="-508" to="1907"/>
    <trip id="155" depart="595.00" from="-462" to="1916"/>
    <trip id="156" depart="598.00" from="-508" to="1072"/>
    <trip id="157" depart="603.00" from="-1916" to="1907"/>
    <trip id="158" depart="604.00" from="-1907" to="1916"/>
    <trip id="159" depart="607.00" from="-1916" to="1072"/>
    <trip id="160" depart="608.00" from="-462" to="462"/>
    <trip id="161" depart="610.00" from="-468" to="315"/>
    <trip id="162" depart="620.00" from="-508" to="1907"/>
    <trip id="163" depart="622.00" from="-1916" to="1912"/>
    <trip id="164" depart="624.00" from="-508" to="508"/>
    <trip id="165" depart="626.00" from="-1072" to="508"/>
    <trip id="166" depart="628.00" from="-1916" to="1072"/>
    <trip id="167" depart="629.00" from="-462" to="1072"/>
    <trip id="168" depart="630.00" from="-462" to="1072"/>
    <trip id="169" depart="631.00" from="-1912" to="1072"/>
    <trip id="170" depart="636.00" from="270" to="1916"/>
    <trip id="171" depart="638.00" from="-468" to="1072"/>
    <trip id="172" depart="641.00" from="-462" to="508"/>
    <trip id="173" depart="644.00" from="270" to="1072"/>
    <trip id="174" depart="646.00" from="-315" to="508"/>
    <trip id="175" depart="654.00" from="-315" to="508"/>
    <trip id="176" depart="658.00" from="-1912" to="-270"/>
    <trip id="177" depart="659.00" from="-1916" to="315"/>
    <trip id="178" depart="665.00" from="270" to="1072"/>
    <trip id="179" depart="668.00" from="-315" to="462"/>
    <trip id="180" depart="670.00" from="-1907" to="1907"/>
    <trip id="181" depart="675.00" from="-508" to="315"/>
    <trip id="182" depart="684.00" from="-1916" to="1912"/>
    <trip id="183" depart="690.00" from="-1912" to="1072"/>
    <trip id="184" depart="691.00" from="270" to="1907"/>
    <trip id="185" depart="692.00" from="-508" to="1907"/>
    <trip id="186" depart="699.00" from="-1907" to="462"/>
    <trip id="187" depart="702.00" from="-1916" to="1916"/>
    <trip id="188" depart="707.00" from="-508" to="462"/>
    <trip id="189" depart="707.00" from="270" to="315"/>
    <trip id="190" depart="707.00" from="-1912" to="462"/>
    <trip id="191" depart="713.00" from="270" to="315"/>
    <trip id="192" depart="718.00" from="-462" to="1916"/>
    <trip id="193" depart="726.00" from="270" to="1912"/>
    <trip id="194" depart="727.00" from="-508" to="1072"/>
    <trip id="195" depart="730.00" from="-1912" to="462"/>
    <trip id="196" depart="733.00" from="-1907" to="1907"/>
    <trip id="197" depart="733.00" from="-1912" to="462"/>
    <trip id="198" depart="742.00" from="270" to="1072"/>
    <trip id="199" depart="742.00" from="-305" to="315"/>
    <trip id="200" depart="743.00" from="-462" to="1912"/>
    <trip id="201" depart="749.00" from="-315" to="1072"/>
    <trip id="202" depart="750.00" from="-462" to="508"/>
    <trip id="203" depart="754.00" from="-1912" to="462"/>
    <trip id="204" depart="755.00" from="-508" to="315"/>
    <trip id="205" depart="760.00" from="270" to="1072"/>
    <trip id="206" depart="762.00" from="-462" to="462"/>
    <trip id="207" depart="763.00" from="-1912" to="1907"/>
    <trip id="208" depart="768.00" from="-462" to="1072"/>
    <trip id="209" depart="770.00" from="-1907" to="315"/>
    <trip id="210" depart="774.00" from="-1072" to="1916"/>
    <trip id="211" depart="776.00" from="-1907" to="1912"/>
    <trip id="212" depart="780.00" from="-1907" to="1072"/>
    <trip id="213" depart="785.00" from="270" to="462"/>
    <trip id="214" depart="799.00" from="-1907" to="315"/>
    <trip id="215" depart="801.00" from="-508" to="-270"/>
    <trip id="216" depart="805.00" from="-1912" to="1916"/>
    <trip id="217" depart="813.00" from="270" to="1916"/>
    <trip id="218" depart="815.00" from="-315" to="1912"/>
    <trip id="219" depart="818.00" from="-462" to="1912"/>
    <trip id="220" depart="822.00" from="270" to="1072"/>
    <trip id="221" depart="824.00" from="-1072" to="315"/>
    <trip id="222" depart="828.00" from="-508" to="1916"/>
    <trip id="223" depart="830.00" from="-462" to="1916"/>
    <trip id="224" depart="838.00" from="-315" to="1916"/>
    <trip id="225" depart="843.00" from="-1072" to="315"/>
    <trip id="226" depart="848.00" from="-1907" to="1072"/>
    <trip id="227" depart="853.00" from="-315" to="-270"/>
    <trip id="228" depart="862.00" from="-1912" to="-270"/>
    <trip id="229" depart="863.00" from="270" to="1907"/>
    <trip id="230" depart="873.00" from="-1072" to="1916"/>
    <trip id="231" depart="874.00" from="-315" to="-270"/>
    <trip id="232" depart="875.00" from="-462" to="315"/>
    <trip id="233" depart="882.00" from="-508" to="1912"/>
    <trip id="234" depart="885.00" from="-315" to="1072"/>
    <trip id="235" depart="890.00" from="-462" to="315"/>
    <trip id="236" depart="899.00" from="-1072" to="1072"/>
    <trip id="237" depart="900.00" from="-1907" to="-270"/>
    <trip id="238" depart="900.00" from="-1916" to="508"/>
    <trip id="239" depart="904.00" from="-315" to="1916"/>
    <trip id="240" depart="904.00" from="-1907" to="1069"/>
    <trip id="241" depart="907.00" from="-1072" to="1907"/>
    <trip id="242" depart="914.00" from="-1072" to="-270"/>
    <trip id="243" depart="916.00" from="-508" to="1072"/>
    <trip id="244" depart="923.00" from="-1916" to="1916"/>
    <trip id="245" depart="926.00" from="-508" to="1912"/>
    <trip id="246" depart="929.00" from="-1907" to="1916"/>
    <trip id="247" depart="939.00" from="-508" to="1912"/>
    <trip id="248" depart="941.00" from="-1072" to="462"/>
    <trip id="249" depart="950.00" from="-462" to="315"/>
    <trip id="250" depart="951.00" from="270" to="1916"/>
    <trip id="251" depart="952.00" from="-1916" to="462"/>
    <trip id="252" depart="955.00" from="-462" to="462"/>
    <trip id="253" depart="961.00" from="-508" to="462"/>
    <trip id="254" depart="961.00" from="270" to="508"/>
    <trip id="255" depart="962.00" from="-1916" to="1907"/>
    <trip id="256" depart="962.00" from="-1916" to="1912"/>
    <trip id="257" depart="969.00" from="-1072" to="1916"/>
    <trip id="258" depart="973.00" from="-508" to="-270"/>
    <trip id="259" depart="976.00" from="-1916" to="462"/>
    <trip id="260" depart="978.00" from="270" to="1916"/>
    <trip id="261" depart="982.00" from="-1072" to="462"/>
    <trip id="262" depart="985.00" from="-462" to="315"/>
    <trip id="263" depart="991.00" from="-1907" to="1907"/>
    <trip id="264" depart="992.00" from="-462" to="1907"/>
    <trip id="265" depart="992.00" from="-508" to="462"/>
    <trip id="266" depart="996.00" from="-508" to="-307"/>
    <trip id="267" depart="999.00" from="270" to="1072"/>
    <trip id="268" depart="1000.00" from="-315" to="508"/>
    <trip id="269" depart="1002.00" from="-1072" to="1907"/>
    <trip id="270" depart="1015.00" from="-508" to="315"/>
    <trip id="271" depart="1016.00" from="-1912" to="1072"/>
    <trip id="272" depart="1022.00" from="-508" to="1907"/>
    <trip id="273" depart="1024.00" from="-508" to="1907"/>
    <trip id="274" depart="1024.00" from="-315" to="1072"/>
    <trip id="275" depart="1025.00" from="-462" to="1912"/>
    <trip id="276" depart="1027.00" from="-1916" to="-270"/>
    <trip id="277" depart="1033.00" from="-1912" to="508"/>
    <trip id="278" depart="1034.00" from="-508" to="1072"/>
    <trip id="279" depart="1035.00" from="270" to="508"/>
    <trip id="280" depart="1036.00" from="-462" to="-270"/>
    <trip id="281" depart="1037.00" from="-1907" to="1916"/>
    <trip id="282" depart="1039.00" from="-315" to="315"/>
    <trip id="283" depart="1039.00" from="-1907" to="1907"/>
    <trip id="284" depart="1040.00" from="-462" to="-270"/>
    <trip id="285" depart="1041.00" from="-1439" to="315"/>
    <trip id="286" depart="1044.00" from="-1907" to="1916"/>
    <trip id="287" depart="1048.00" from="-315" to="1907"/>
    <trip id="288" depart="1065.00" from="-508" to="-270"/>
    <trip id="289" depart="1066.00" from="270" to="508"/>
    <trip id="290" depart="1068.00" from="-462" to="1907"/>
    <trip id="291" depart="1071.00" from="307" to="1916"/>
    <trip id="292" depart="1072.00" from="-1912" to="1912"/>
    <trip id="293" depart="1074.00" from="-315" to="1072"/>
    <trip id="294" depart="1087.00" from="270" to="1072"/>
    <trip id="295" depart="1090.00" from="-1907" to="315"/>
    <trip id="296" depart="1090.00" from="-508" to="315"/>
    <trip id="297" depart="1091.00" from="-1916" to="1072"/>
    <trip id="298" depart="1094.00" from="-1916" to="1916"/>
    <trip id="299" depart="1102.00" from="-1072" to="1916"/>
    <trip id="300" depart="1105.00" from="-1907" to="1907"/>
    <trip id="301" depart="1106.00" from="-462" to="1907"/>
    <trip id="302" depart="1107.00" from="-1907" to="1907"/>
    <trip id="303" depart="1113.00" from="270" to="1916"/>
    <trip id="304" depart="1115.00" from="-1916" to="1912"/>
    <trip id="305" depart="1118.00" from="-1916" to="1912"/>
    <trip id="306" depart="1122.00" from="270" to="315"/>
    <trip id="307" depart="1123.00" from="-315" to="315"/>
    <trip id="308" depart="1126.00" from="-462" to="1916"/>
    <trip id="309" depart="1128.00" from="-315" to="1907"/>
    <trip id="310" depart="1130.00" from="-1916" to="1072"/>
    <trip id="311" depart="1138.00" from="-1916" to="1907"/>
    <trip id="312" depart="1148.00" from="-1072" to="462"/>
    <trip id="313" depart="1150.00" from="-1907" to="1072"/>
    <trip id="314" depart="1154.00" from="270" to="1912"/>
    <trip id="315" depart="1155.00" from="-462" to="462"/>
    <trip id="316" depart="1161.00" from="-462" to="1912"/>
    <trip id="317" depart="1172.00" from="-1912" to="462"/>
    <trip id="318" depart="1174.00" from="270" to="315"/>
    <trip id="319" depart="1175.00" from="-1916" to="1072"/>
    <trip id="320" depart="1175.00" from="270" to="462"/>
    <trip id="321" depart="1178.00" from="-1072" to="1072"/>
    <trip id="322" depart="1187.00" from="270" to="1912"/>
    <trip id="323" depart="1188.00" from="270" to="315"/>
    <trip id="324" depart="1194.00" from="-1072" to="-270"/>
    <trip id="325" depart="1195.00" from="-1072" to="508"/>
    <trip id="326" depart="1202.00" from="270" to="1907"/>
    <trip id="327" depart="1211.00" from="270" to="462"/>
    <trip id="328" depart="1215.00" from="-1916" to="1072"/>
    <trip id="329" depart="1219.00" from="-315" to="1907"/>
    <trip id="330" depart="1220.00" from="-1072" to="462"/>
    <trip id="331" depart="1220.00" from="-1072" to="462"/>
    <trip id="332" depart="1222.00" from="-1907" to="315"/>
    <trip id="333" depart="1223.00" from="-462" to="468"/>
    <trip id="334" depart="1223.00" from="-1912" to="462"/>
    <trip id="335" depart="1231.00" from="-1072" to="462"/>
    <trip id="336" depart="1232.00" from="-1916" to="-270"/>
    <trip id="337" depart="1235.00" from="-1907" to="1912"/>
    <trip id="338" depart="1237.00" from="-1907" to="-270"/>
    <trip id="339" depart="1241.00" from="-462" to="1907"/>
    <trip id="340" depart="1242.00" from="468" to="508"/>
    <trip id="341" depart="1250.00" from="-1907" to="462"/>
    <trip id="342" depart="1257.00" from="270" to="-270"/>
    <trip id="343" depart="1258.00" from="-315" to="1912"/>
    <trip id="344" depart="1260.00" from="-462" to="508"/>
    <trip id="345" depart="1262.00" from="-1916" to="462"/>
    <trip id="346" depart="1264.00" from="270" to="1907"/>
    <trip id="347" depart="1264.00" from="-1916" to="1907"/>
    <trip id="348" depart="1266.00" from="270" to="315"/>
    <trip id="349" depart="1268.00" from="-462" to="1072"/>
    <trip id="350" depart="1272.00" from="-1912" to="1912"/>
    <trip id="351" depart="1275.00" from="270" to="1912"/>
    <trip id="352" depart="1280.00" from="1918" to="1072"/>
    <trip id="353" depart="1285.00" from="-1912" to="1912"/>
    <trip id="354" depart="1288.00" from="-1912" to="-270"/>
    <trip id="355" depart="1289.00" from="-1912" to="1907"/>
    <trip id="356" depart="1291.00" from="-462" to="508"/>
    <trip id="357" depart="1297.00" from="-462" to="1916"/>
    <trip id="358" depart="1298.00" from="-315" to="1912"/>
    <trip id="359" depart="1307.00" from="270" to="462"/>
    <trip id="360" depart="1310.00" from="-508" to="462"/>
    <trip id="361" depart="1311.00" from="-1072" to="1907"/>
    <trip id="362" depart="1314.00" from="-508" to="1916"/>
    <trip id="363" depart="1317.00" from="-1912" to="508"/>
    <trip id="364" depart="1323.00" from="-315" to="1907"/>
    <trip id="365" depart="1330.00" from="-508" to="1072"/>
    <trip id="366" depart="1333.00" from="-1072" to="462"/>
    <trip id="367" depart="1334.00" from="-1072" to="1072"/>
    <trip id="368" depart="1334.00" from="-462" to="462"/>
    <trip id="369" depart="1339.00" from="-1907" to="1072"/>
    <trip id="370" depart="1345.00" from="-1912" to="-270"/>
    <trip id="371" depart="1348.00" from="-508" to="1912"/>
    <trip id="372" depart="1351.00" from="270" to="1907"/>
    <trip id="373" depart="1358.00" from="-1072" to="315"/>
    <trip id="374" depart="1362.00" from="-1916" to="508"/>
    <trip id="375" depart="1364.00" from="-315" to="462"/>
    <trip id="376" depart="1369.00" from="-1072" to="462"/>
    <trip id="377" depart="1370.00" from="270" to="1907"/>
    <trip id="378" depart="1372.00" from="-1912" to="1907"/>
    <trip id="379" depart="1373.00" from="-1912" to="1912"/>
    <trip id="380" depart="1379.00" from="307" to="1912"/>
    <trip id="381" depart="1381.00" from="-508" to="1912"/>
    <trip id="382" depart="1385.00" from="-462" to="462"/>
    <trip id="383" depart="1390.00" from="-1907" to="1912"/>
    <trip id="384" depart="1394.00" from="-1907" to="1072"/>
    <trip id="385" depart="1396.00" from="-508" to="-270"/>
    <trip id="386" depart="1407.00" from="270" to="1916"/>
    <trip id="387" depart="1415.00" from="-1069" to="462"/>
    <trip id="388" depart="1419.00" from="-1072" to="315"/>
    <trip id="389" depart="1437.00" from="-1907" to="1907"/>
    <trip id="390" depart="1439.00" from="-1912" to="1072"/>
    <trip id="391" depart="1441.00" from="-1912" to="1916"/>
    <trip id="392" depart="1445.00" from="-1907" to="462"/>
    <trip id="393" depart="1450.00" from="-1907" to="1072"/>
    <trip id="394" depart="1450.00" from="-1912" to="315"/>
    <trip id="395" depart="1451.00" from="-1912" to="315"/>
    <trip id="396" depart="1457.00" from="-462" to="315"/>
    <trip id="397" depart="1460.00" from="270" to="315"/>
    <trip id="398" depart="1462.00" from="-462" to="1907"/>
    <trip id="399" depart="1462.00" from="-1072" to="508"/>
    <trip id="400" depart="1470.00" from="-1912" to="1912"/>
    <trip id="401" depart="1474.00" from="-1072" to="-270"/>
    <trip id="402" depart="1482.00" from="-1072" to="1072"/>
    <trip id="403" depart="1486.00" from="-1072" to="-270"/>
    <trip id="404" depart="1489.00" from="-1907" to="1072"/>
    <trip id="405" depart="1492.00" from="-1072" to="-307"/>
    <trip id="406" depart="1496.00" from="270" to="1912"/>
    <trip id="407" depart="1498.00" from="-1912" to="1072"/>
    <trip id="408" depart="1506.00" from="-1072" to="508"/>
    <trip id="409" depart="1507.00" from="-1072" to="1912"/>
    <trip id="410" depart="1509.00" from="270" to="1907"/>
    <trip id="411" depart="1513.00" from="-1072" to="-307"/>
    <trip id="412" depart="1522.00" from="-1907" to="-270"/>
    <trip id="413" depart="1523.00" from="-508" to="315"/>
    <trip id="414" depart="1524.00" from="-462" to="315"/>
    <trip id="415" depart="1527.00" from="-1912" to="1916"/>
    <trip id="416" depart="1530.00" from="-1912" to="315"/>
    <trip id="417" depart="1533.00" from="-508" to="1916"/>
    <trip id="418" depart="1534.00" from="-1916" to="1918"/>
    <trip id="419" depart="1535.00" from="-462" to="-270"/>
    <trip id="420" depart="1542.00" from="270" to="1912"/>
    <trip id="421" depart="1550.00" from="-1907" to="1907"/>
    <trip id="422" depart="1551.00" from="270" to="508"/>
    <trip id="423" depart="1562.00" from="-315" to="1072"/>
    <trip id="424" depart="1564.00" from="-508" to="1072"/>
    <trip id="425" depart="1565.00" from="-508" to="-270"/>
    <trip id="426" depart="1570.00" from="-1072" to="1912"/>
    <trip id="427" depart="1573.00" from="-1916" to="1912"/>
    <trip id="428" depart="1579.00" from="-1916" to="462"/>
    <trip id="429" depart="1580.00" from="270" to="1912"/>
    <trip id="430" depart="1582.00" from="-462" to="1916"/>
    <trip id="431" depart="1587.00" from="-462" to="315"/>
    <trip id="432" depart="1587.00" from="-1916" to="508"/>
    <trip id="433" depart="1590.00" from="-508" to="315"/>
    <trip id="434" depart="1592.00" from="-1916" to="508"/>
    <trip id="435" depart="1593.00" from="-1912" to="508"/>
    <trip id="436" depart="1599.00" from="-1907" to="-270"/>
    <trip id="437" depart="1603.00" from="270" to="1912"/>
    <trip id="438" depart="1606.00" from="-1907" to="-270"/>
    <trip id="439" depart="1607.00" from="-462" to="508"/>
    <trip id="440" depart="1611.00" from="-1912" to="462"/>
    <trip id="441" depart="1613.00" from="-1072" to="1907"/>
    <trip id="442" depart="1613.00" from="-1907" to="508"/>
    <trip id="443" depart="1614.00" from="-462" to="1916"/>
    <trip id="444" depart="1616.00" from="-1916" to="462"/>
    <trip id="445" depart="1619.00" from="-508" to="1072"/>
    <trip id="446" depart="1621.00" from="-1912" to="1912"/>
    <trip id="447" depart="1624.00" from="-315" to="315"/>
    <trip id="448" depart="1624.00" from="-315" to="462"/>
    <trip id="449" depart="1629.00" from="-1907" to="786"/>
    <trip id="450" depart="1633.00" from="-1072" to="1907"/>
    <trip id="451" depart="1634.00" from="-1072" to="1072"/>
    <trip id="452" depart="1635.00" from="-508" to="508"/>
    <trip id="453" depart="1636.00" from="-462" to="1907"/>
    <trip id="454" depart="1639.00" from="-1907" to="508"/>
    <trip id="455" depart="1641.00" from="-315" to="1072"/>
    <trip id="456" depart="1642.00" from="-508" to="462"/>
    <trip id="457" depart="1644.00" from="-315" to="315"/>
    <trip id="458" depart="1647.00" from="-1907" to="1072"/>
    <trip id="459" depart="1656.00" from="-1907" to="1072"/>
    <trip id="460" depart="1659.00" from="-1912" to="462"/>
    <trip id="461" depart="1667.00" from="-508" to="462"/>
    <trip id="462" depart="1669.00" from="-508" to="508"/>
    <trip id="463" depart="1674.00" from="-462" to="1912"/>
    <trip id="464" depart="1674.00" from="270" to="1907"/>
    <trip id="465" depart="1675.00" from="-1072" to="1916"/>
    <trip id="466" depart="1677.00" from="270" to="462"/>
    <trip id="467" depart="1680.00" from="-1907" to="-270"/>
    <trip id="468" depart="1694.00" from="-1072" to="508"/>
    <trip id="469" depart="1695.00" from="-315" to="1072"/>
    <trip id="470" depart="1696.00" from="-1072" to="1907"/>
    <trip id="471" depart="1698.00" from="-462" to="1072"/>
    <trip id="472" depart="1701.00" from="-1072" to="462"/>
    <trip id="473" depart="1709.00" from="-508" to="315"/>
    <trip id="474" depart="1709.00" from="-1907" to="1907"/>
    <trip id="475" depart="1718.00" from="-1916" to="1907"/>
    <trip id="476" depart="1719.00" from="270" to="1916"/>
    <trip id="477" depart="1722.00" from="-508" to="1907"/>
    <trip id="478" depart="1725.00" from="-786" to="-270"/>
    <trip id="479" depart="1733.00" from="-1916" to="462"/>
    <trip id="480" depart="1737.00" from="-315" to="315"/>
    <trip id="481" depart="1739.00" from="270" to="1912"/>