<?xml version="1.0" encoding="UTF-8"?>

<!-- generated on 2025-03-10 19:20:37.584758 by randomTrips.py v1_19_0+1770-8bb5c24c187
<configuration>
    <net-file value="random_subnetwork_1.net.xml"/>
    <output-trip-file value="random_subnetwork_1_light.trips.xml"/>
    <fringe-factor value="100"/>
    <min-distance value="800.0"/>
    <remove-loops value="True"/>
    <validate value="True"/>
    <period value="2.582792860012627"/>
    <random-depart value="True"/>
    <binomial value="10"/>
</configuration>
-->

<!-- generated on 2025-03-10 19:20:37 by Eclipse SUMO duarouter Version v1_19_0+1770-8bb5c24c187
<configuration xmlns:xsi="http://www.w3.org/2001/XMLSchema-instance" xsi:noNamespaceSchemaLocation="http://sumo.dlr.de/xsd/duarouterConfiguration.xsd">

    <input>
        <net-file value="random_subnetwork_1.net.xml"/>
        <route-files value="random_subnetwork_1_light.trips.xml"/>
    </input>

    <output>
        <output-file value="random_subnetwork_1_light.trips.xml.tmp"/>
        <alternatives-output value="NUL"/>
        <write-trips value="true"/>
    </output>

    <processing>
        <remove-loops value="true"/>
    </processing>

    <time>
        <begin value="0.0"/>
        <end value="3600.0"/>
    </time>

    <report>
        <no-warnings value="true"/>
        <ignore-errors value="true"/>
        <no-step-log value="true"/>
    </report>

</configuration>
-->

<routes xmlns:xsi="http://www.w3.org/2001/XMLSchema-instance" xsi:noNamespaceSchemaLocation="http://sumo.dlr.de/xsd/routes_file.xsd">
    <trip id="0" depart="0.00" from="-1912" to="1072"/>
    <trip id="1" depart="0.00" from="-1907" to="1916"/>
    <trip id="2" depart="0.00" from="-315" to="1072"/>
    <trip id="3" depart="1.00" from="-1912" to="1072"/>
    <trip id="4" depart="5.00" from="-462" to="1912"/>
    <trip id="5" depart="8.00" from="-462" to="315"/>
    <trip id="6" depart="10.00" from="-1912" to="-270"/>
    <trip id="7" depart="24.00" from="-1912" to="1916"/>
    <trip id="8" depart="25.00" from="-315" to="462"/>
    <trip id="9" depart="27.00" from="270" to="462"/>
    <trip id="10" depart="29.00" from="-1916" to="508"/>
    <trip id="11" depart="31.00" from="270" to="1916"/>
    <trip id="12" depart="33.00" from="-1916" to="1912"/>
    <trip id="14" depart="35.00" from="-1072" to="1912"/>
    <trip id="15" depart="40.00" from="-1912" to="462"/>
    <trip id="16" depart="41.00" from="-1916" to="-270"/>
    <trip id="17" depart="41.00" from="-1072" to="315"/>
    <trip id="18" depart="43.00" from="-462" to="1916"/>
    <trip id="19" depart="44.00" from="270" to="1912"/>
    <trip id="20" depart="48.00" from="-508" to="1072"/>
    <trip id="21" depart="49.00" from="-462" to="1912"/>
    <trip id="22" depart="52.00" from="270" to="1916"/>
    <trip id="23" depart="56.00" from="-1912" to="1072"/>
    <trip id="24" depart="70.00" from="-315" to="1916"/>
    <trip id="25" depart="72.00" from="-1072" to="315"/>
    <trip id="26" depart="75.00" from="-1916" to="1907"/>
    <trip id="27" depart="82.00" from="-462" to="315"/>
    <trip id="28" depart="83.00" from="270" to="1916"/>
    <trip id="29" depart="85.00" from="270" to="462"/>
    <trip id="30" depart="87.00" from="-508" to="1072"/>
    <trip id="31" depart="88.00" from="-508" to="1072"/>
    <trip id="32" depart="88.00" from="-508" to="1916"/>
    <trip id="33" depart="96.00" from="270" to="462"/>
    <trip id="34" depart="97.00" from="-462" to="-270"/>
    <trip id="35" depart="100.00" from="-1912" to="1072"/>
    <trip id="36" depart="100.00" from="-508" to="1072"/>
    <trip id="37" depart="101.00" from="270" to="462"/>
    <trip id="38" depart="102.00" from="-1912" to="462"/>
    <trip id="39" depart="115.00" from="-1912" to="462"/>
    <trip id="40" depart="119.00" from="-1072" to="1912"/>
    <trip id="41" depart="120.00" from="270" to="462"/>
    <trip id="42" depart="121.00" from="-508" to="1916"/>
    <trip id="43" depart="122.00" from="-315" to="1072"/>
    <trip id="44" depart="124.00" from="-462" to="305"/>
    <trip id="45" depart="131.00" from="-315" to="1916"/>
    <trip id="46" depart="136.00" from="-508" to="1916"/>
    <trip id="47" depart="141.00" from="-1072" to="315"/>
    <trip id="48" depart="145.00" from="270" to="1916"/>
    <trip id="49" depart="151.00" from="-1916" to="508"/>
    <trip id="50" depart="153.00" from="-1072" to="1907"/>
    <trip id="51" depart="159.00" from="-1916" to="508"/>
    <trip id="52" depart="162.00" from="270" to="1916"/>
    <trip id="53" depart="165.00" from="-462" to="315"/>
    <trip id="54" depart="171.00" from="-1916" to="462"/>
    <trip id="55" depart="173.00" from="-1072" to="1907"/>
    <trip id="56" depart="175.00" from="-462" to="-270"/>
    <trip id="57" depart="182.00" from="-315" to="1072"/>
    <trip id="58" depart="186.00" from="-1916" to="462"/>
    <trip id="59" depart="186.00" from="-1916" to="-270"/>
    <trip id="60" depart="187.00" from="-1907" to="1072"/>
    <trip id="61" depart="188.00" from="-1916" to="462"/>
    <trip id="62" depart="190.00" from="270" to="1916"/>
    <trip id="63" depart="192.00" from="-1916" to="1907"/>
    <trip id="64" depart="194.00" from="-1072" to="1907"/>
    <trip id="65" depart="204.00" from="-1912" to="1916"/>
    <trip id="66" depart="205.00" from="-1072" to="1912"/>
    <trip id="67" depart="208.00" from="-315" to="1072"/>
    <trip id="68" depart="213.00" from="270" to="1916"/>
    <trip id="69" depart="214.00" from="-1912" to="1916"/>
    <trip id="70" depart="221.00" from="-462" to="1912"/>
    <trip id="71" depart="223.00" from="-1916" to="508"/>
    <trip id="72" depart="224.00" from="-1916" to="-470"/>
    <trip id="73" depart="225.00" from="270" to="1912"/>
    <trip id="74" depart="226.00" from="-462" to="1912"/>
    <trip id="75" depart="231.00" from="-1072" to="1907"/>
    <trip id="76" depart="236.00" from="-1072" to="315"/>
    <trip id="77" depart="240.00" from="-1907" to="1916"/>
    <trip id="78" depart="241.00" from="-1912" to="462"/>
    <trip id="79" depart="241.00" from="-462" to="-270"/>
    <trip id="80" depart="247.00" from="-1916" to="1912"/>
    <trip id="82" depart="248.00" from="-1072" to="508"/>
    <trip id="83" depart="250.00" from="-1907" to="1072"/>
    <trip id="84" depart="250.00" from="-1912" to="1072"/>
    <trip id="85" depart="254.00" from="-315" to="1916"/>
    <trip id="86" depart="255.00" from="270" to="462"/>
    <trip id="87" depart="256.00" from="-1916" to="508"/>
    <trip id="88" depart="258.00" from="-1072" to="315"/>
    <trip id="89" depart="259.00" from="-1916" to="315"/>
    <trip id="90" depart="262.00" from="-462" to="315"/>
    <trip id="91" depart="263.00" from="-1916" to="315"/>
    <trip id="92" depart="271.00" from="-1912" to="1072"/>
    <trip id="93" depart="272.00" from="-462" to="-270"/>
    <trip id="94" depart="274.00" from="-508" to="1072"/>
    <trip id="95" depart="275.00" from="-1907" to="1916"/>
    <trip id="96" depart="276.00" from="-1072" to="508"/>
    <trip id="97" depart="276.00" from="-1912" to="462"/>
    <trip id="98" depart="281.00" from="-462" to="1916"/>
    <trip id="99" depart="286.00" from="-1912" to="462"/>
    <trip id="100" depart="287.00" from="-1072" to="1907"/>
    <trip id="101" depart="291.00" from="-462" to="-270"/>
    <trip id="102" depart="294.00" from="-1072" to="1907"/>
    <trip id="103" depart="298.00" from="-1916" to="-270"/>
    <trip id="104" depart="302.00" from="-315" to="1072"/>
    <trip id="105" depart="313.00" from="-1912" to="462"/>
    <trip id="106" depart="313.00" from="-315" to="1072"/>
    <trip id="107" depart="314.00" from="-1912" to="1916"/>
    <trip id="108" depart="320.00" from="-462" to="1912"/>
    <trip id="109" depart="322.00" from="-1072" to="315"/>
    <trip id="110" depart="325.00" from="-462" to="1916"/>
    <trip id="111" depart="328.00" from="-315" to="1916"/>
    <trip id="112" depart="332.00" from="-1907" to="1072"/>
    <trip id="113" depart="334.00" from="-315" to="1916"/>
    <trip id="114" depart="342.00" from="-315" to="1916"/>
    <trip id="115" depart="342.00" from="-462" to="315"/>
    <trip id="116" depart="348.00" from="-462" to="315"/>
    <trip id="117" depart="352.00" from="270" to="1912"/>
    <trip id="118" depart="352.00" from="-1916" to="508"/>
    <trip id="119" depart="354.00" from="-315" to="1916"/>
    <trip id="120" depart="354.00" from="-1912" to="462"/>
    <trip id="121" depart="357.00" from="-508" to="1072"/>
    <trip id="122" depart="362.00" from="-1907" to="1916"/>
    <trip id="123" depart="367.00" from="-1916" to="315"/>
    <trip id="124" depart="370.00" from="-462" to="315"/>
    <trip id="125" depart="371.00" from="-1916" to="462"/>
    <trip id="126" depart="372.00" from="270" to="1916"/>
    <trip id="127" depart="374.00" from="-1072" to="508"/>
    <trip id="128" depart="374.00" from="-1916" to="1907"/>
    <trip id="129" depart="375.00" from="-1916" to="1912"/>
    <trip id="130" depart="377.00" from="-1916" to="462"/>
    <trip id="131" depart="379.00" from="-1916" to="462"/>
    <trip id="132" depart="381.00" from="-1916" to="-270"/>
    <trip id="133" depart="385.00" from="-462" to="1916"/>
    <trip id="134" depart="395.00" from="-1912" to="1916"/>
    <trip id="135" depart="395.00" from="-1912" to="1072"/>
    <trip id="136" depart="398.00" from="-1912" to="-270"/>
    <trip id="137" depart="402.00" from="-1072" to="315"/>
    <trip id="138" depart="403.00" from="-1907" to="1916"/>
    <trip id="139" depart="404.00" from="-1912" to="462"/>
    <trip id="140" depart="404.00" from="-1916" to="1907"/>
    <trip id="141" depart="404.00" from="-1912" to="462"/>
    <trip id="142" depart="405.00" from="-1907" to="1916"/>
    <trip id="143" depart="406.00" from="-462" to="-270"/>
    <trip id="145" depart="422.00" from="-1916" to="-270"/>
    <trip id="146" depart="423.00" from="-462" to="1916"/>
    <trip id="147" depart="427.00" from="-1916" to="1907"/>
    <trip id="148" depart="428.00" from="-1072" to="315"/>
    <trip id="149" depart="428.00" from="270" to="462"/>
    <trip id="150" depart="430.00" from="270" to="1916"/>
    <trip id="151" depart="431.00" from="-1916" to="1912"/>
    <trip id="152" depart="432.00" from="-1916" to="1912"/>
    <trip id="153" depart="434.00" from="-1916" to="-270"/>
    <trip id="154" depart="435.00" from="-462" to="1916"/>
    <trip id="155" depart="440.00" from="-1916" to="1907"/>
    <trip id="156" depart="445.00" from="-1907" to="1072"/>
    <trip id="157" depart="447.00" from="270" to="1912"/>
    <trip id="158" depart="450.00" from="-462" to="1912"/>
    <trip id="159" depart="455.00" from="-462" to="1916"/>
    <trip id="160" depart="457.00" from="-315" to="1072"/>
    <trip id="161" depart="461.00" from="270" to="1912"/>
    <trip id="162" depart="463.00" from="-1912" to="1072"/>
    <trip id="163" depart="463.00" from="-1072" to="508"/>
    <trip id="164" depart="470.00" from="270" to="462"/>
    <trip id="165" depart="474.00" from="-1916" to="315"/>
    <trip id="166" depart="475.00" from="-1916" to="508"/>
    <trip id="167" depart="479.00" from="-1916" to="-270"/>
    <trip id="168" depart="480.00" from="-1072" to="1907"/>
    <trip id="169" depart="489.00" from="-1916" to="462"/>
    <trip id="170" depart="489.00" from="-462" to="-270"/>
    <trip id="171" depart="490.00" from="-1916" to="462"/>
    <trip id="172" depart="491.00" from="-1916" to="1907"/>
    <trip id="173" depart="502.00" from="270" to="1912"/>
    <trip id="174" depart="502.00" from="-1916" to="1907"/>
    <trip id="175" depart="505.00" from="-462" to="-270"/>
    <trip id="176" depart="510.00" from="-1072" to="1907"/>
    <trip id="177" depart="515.00" from="-1916" to="1907"/>
    <trip id="178" depart="518.00" from="-508" to="1072"/>
    <trip id="179" depart="522.00" from="-1907" to="1072"/>
    <trip id="180" depart="532.00" from="-1916" to="508"/>
    <trip id="181" depart="533.00" from="-315" to="462"/>
    <trip id="182" depart="535.00" from="-1072" to="508"/>
    <trip id="183" depart="536.00" from="-508" to="1916"/>
    <trip id="184" depart="541.00" from="-315" to="1072"/>
    <trip id="185" depart="545.00" from="-1907" to="1072"/>
    <trip id="186" depart="546.00" from="-315" to="462"/>
    <trip id="187" depart="550.00" from="270" to="1916"/>
    <trip id="188" depart="553.00" from="270" to="1912"/>
    <trip id="189" depart="555.00" from="-1072" to="315"/>
    <trip id="190" depart="562.00" from="-462" to="315"/>
    <trip id="191" depart="568.00" from="-1916" to="508"/>
    <trip id="192" depart="570.00" from="-462" to="315"/>
    <trip id="193" depart="572.00" from="-462" to="315"/>
    <trip id="194" depart="581.00" from="-1916" to="315"/>
    <trip id="195" depart="582.00" from="270" to="462"/>
    <trip id="196" depart="583.00" from="-1907" to="1072"/>
    <trip id="197" depart="584.00" from="-462" to="315"/>
    <trip id="198" depart="587.00" from="-1912" to="1072"/>
    <trip id="199" depart="590.00" from="-1072" to="1912"/>
    <trip id="200" depart="597.00" from="-1072" to="1907"/>
    <trip id="201" depart="599.00" from="-1912" to="1916"/>
    <trip id="202" depart="600.00" from="-462" to="-270"/>
    <trip id="203" depart="601.00" from="-508" to="1916"/>
    <trip id="204" depart="614.00" from="-508" to="1072"/>
    <trip id="205" depart="615.00" from="-1916" to="1912"/>
    <trip id="206" depart="617.00" from="-1072" to="1912"/>
    <trip id="207" depart="621.00" from="-1916" to="462"/>
    <trip id="208" depart="621.00" from="270" to="1912"/>
    <trip id="209" depart="624.00" from="-462" to="315"/>
    <trip id="210" depart="624.00" from="-1916" to="508"/>
    <trip id="211" depart="625.00" from="-1912" to="1072"/>
    <trip id="212" depart="626.00" from="-1916" to="508"/>
    <trip id="213" depart="626.00" from="-1912" to="-270"/>
    <trip id="214" depart="631.00" from="-1916" to="-270"/>
    <trip id="215" depart="634.00" from="-1912" to="462"/>
    <trip id="216" depart="636.00" from="-1916" to="462"/>
    <trip id="217" depart="639.00" from="-462" to="315"/>
    <trip id="218" depart="640.00" from="-1907" to="1072"/>
    <trip id="219" depart="642.00" from="-1072" to="1907"/>
    <trip id="220" depart="642.00" from="-1907" to="1072"/>
    <trip id="221" depart="643.00" from="-1072" to="315"/>
    <trip id="222" depart="648.00" from="-1907" to="1072"/>
    <trip id="223" depart="652.00" from="-1907" to="1072"/>
    <trip id="224" depart="653.00" from="-1912" to="462"/>
    <trip id="225" depart="656.00" from="-462" to="1912"/>
    <trip id="226" depart="656.00" from="-315" to="1916"/>
    <trip id="227" depart="658.00" from="-462" to="1912"/>
    <trip id="228" depart="661.00" from="-1916" to="462"/>
    <trip id="229" depart="666.00" from="-1072" to="508"/>
    <trip id="230" depart="667.00" from="-1072" to="1907"/>
    <trip id="231" depart="668.00" from="-1916" to="1907"/>
    <trip id="232" depart="668.00" from="-1916" to="508"/>
    <trip id="233" depart="676.00" from="270" to="1916"/>
    <trip id="234" depart="677.00" from="-1907" to="1916"/>
    <trip id="235" depart="678.00" from="-1907" to="1072"/>
    <trip id="236" depart="681.00" from="-1916" to="462"/>
    <trip id="237" depart="682.00" from="-1916" to="508"/>
    <trip id="238" depart="685.00" from="-462" to="315"/>
    <trip id="239" depart="686.00" from="270" to="1912"/>
    <trip id="240" depart="688.00" from="-1072" to="315"/>
    <trip id="241" depart="692.00" from="270" to="462"/>
    <trip id="242" depart="695.00" from="-1912" to="-270"/>
    <trip id="243" depart="703.00" from="-315" to="1916"/>
    <trip id="244" depart="710.00" from="-462" to="1916"/>
    <trip id="245" depart="712.00" from="-1912" to="-270"/>
    <trip id="246" depart="712.00" from="-315" to="1916"/>
    <trip id="247" depart="714.00" from="-315" to="1916"/>
    <trip id="248" depart="716.00" from="270" to="1916"/>
    <trip id="249" depart="716.00" from="-315" to="462"/>
    <trip id="250" depart="721.00" from="-1072" to="1907"/>
    <trip id="251" depart="724.00" from="-315" to="1072"/>
    <trip id="252" depart="732.00" from="-1916" to="1907"/>
    <trip id="253" depart="733.00" from="-1912" to="-270"/>
    <trip id="254" depart="737.00" from="-508" to="1072"/>
    <trip id="255" depart="740.00" from="-1916" to="1907"/>
    <trip id="256" depart="743.00" from="-315" to="462"/>
    <trip id="257" depart="747.00" from="-315" to="462"/>
    <trip id="258" depart="751.00" from="-1912" to="1916"/>
    <trip id="259" depart="756.00" from="-1907" to="1072"/>
    <trip id="260" depart="757.00" from="-462" to="-270"/>
    <trip id="261" depart="758.00" from="-1072" to="315"/>
    <trip id="262" depart="760.00" from="270" to="1912"/>
    <trip id="263" depart="763.00" from="-1916" to="315"/>
    <trip id="264" depart="766.00" from="-1912" to="462"/>
    <trip id="265" depart="768.00" from="-462" to="315"/>
    <trip id="266" depart="768.00" from="-1912" to="-270"/>
    <trip id="267" depart="770.00" from="-315" to="462"/>
    <trip id="268" depart="773.00" from="-1912" to="1916"/>
    <trip id="269" depart="773.00" from="-315" to="1916"/>
    <trip id="270" depart="774.00" from="-1072" to="1912"/>
    <trip id="271" depart="782.00" from="-1072" to="1912"/>
    <trip id="272" depart="784.00" from="-1916" to="508"/>
    <trip id="273" depart="788.00" from="-508" to="1916"/>
    <trip id="274" depart="789.00" from="-1916" to="462"/>
    <trip id="275" depart="791.00" from="270" to="1912"/>
    <trip id="276" depart="795.00" from="-1916" to="-270"/>
    <trip id="277" depart="795.00" from="-1912" to="462"/>
    <trip id="278" depart="796.00" from="-1916" to="305"/>
    <trip id="279" depart="796.00" from="-1072" to="1907"/>
    <trip id="280" depart="799.00" from="-1072" to="508"/>
    <trip id="281" depart="800.00" from="-1907" to="1916"/>
    <trip id="282" depart="800.00" from="-315" to="1072"/>
    <trip id="283" depart="801.00" from="-1912" to="1072"/>
    <trip id="284" depart="804.00" from="-315" to="1916"/>
    <trip id="285" depart="805.00" from="-1072" to="315"/>
    <trip id="286" depart="805.00" from="-315" to="1916"/>
    <trip id="287" depart="811.00" from="-1072" to="1907"/>
    <trip id="288" depart="816.00" from="-1907" to="1916"/>
    <trip id="289" depart="818.00" from="-462" to="1912"/>
    <trip id="290" depart="821.00" from="-1912" to="-270"/>
    <trip id="291" depart="824.00" from="-1916" to="1907"/>
    <trip id="292" depart="826.00" from="270" to="462"/>
    <trip id="293" depart="827.00" from="270" to="462"/>
    <trip id="294" depart="832.00" from="-1072" to="1907"/>
    <trip id="295" depart="832.00" from="-1912" to="462"/>
    <trip id="296" depart="837.00" from="-1916" to="462"/>
    <trip id="297" depart="838.00" from="-1916" to="-270"/>
    <trip id="298" depart="840.00" from="-1916" to="315"/>
    <trip id="299" depart="841.00" from="-1916" to="462"/>
    <trip id="300" depart="844.00" from="-1072" to="1907"/>
    <trip id="301" depart="857.00" from="-1912" to="1448"/>
    <trip id="302" depart="859.00" from="-315" to="1916"/>
    <trip id="303" depart="860.00" from="-1916" to="1907"/>
    <trip id="304" depart="860.00" from="-508" to="1916"/>
    <trip id="305" depart="862.00" from="-1912" to="1916"/>
    <trip id="306" depart="866.00" from="-1912" to="1916"/>
    <trip id="307" depart="867.00" from="-508" to="1916"/>
    <trip id="308" depart="870.00" from="-1912" to="1072"/>
    <trip id="309" depart="872.00" from="-462" to="-270"/>
    <trip id="310" depart="875.00" from="-315" to="462"/>
    <trip id="311" depart="876.00" from="-1072" to="508"/>
    <trip id="312" depart="881.00" from="-1072" to="1907"/>
    <trip id="313" depart="882.00" from="-1916" to="315"/>
    <trip id="314" depart="889.00" from="-315" to="462"/>
    <trip id="315" depart="889.00" from="-315" to="462"/>
    <trip id="316" depart="893.00" from="-462" to="-270"/>
    <trip id="317" depart="894.00" from="-1907" to="1072"/>
    <trip id="318" depart="900.00" from="-1072" to="315"/>
    <trip id="319" depart="902.00" from="-1072" to="508"/>
    <trip id="320" depart="904.00" from="-508" to="1916"/>
    <trip id="321" depart="905.00" from="-1912" to="1072"/>
    <trip id="322" depart="906.00" from="270" to="1912"/>
    <trip id="323" depart="909.00" from="-508" to="1916"/>
    <trip id="324" depart="914.00" from="-1072" to="508"/>
    <trip id="325" depart="922.00" from="-462" to="315"/>
    <trip id="326" depart="923.00" from="-1072" to="1907"/>
    <trip id="327" depart="923.00" from="-1072" to="315"/>
    <trip id="328" depart="925.00" from="-1072" to="508"/>
    <trip id="329" depart="926.00" from="270" to="1916"/>
    <trip id="330" depart="928.00" from="-1912" to="1916"/>
    <trip id="331" depart="932.00" from="-315" to="1072"/>
    <trip id="332" depart="934.00" from="-1072" to="315"/>
    <trip id="333" depart="935.00" from="-1916" to="1907"/>
    <trip id="334" depart="935.00" from="-1916" to="462"/>
    <trip id="335" depart="937.00" from="-1912" to="462"/>
    <trip id="336" depart="937.00" from="-1912" to="-270"/>
    <trip id="337" depart="942.00" from="270" to="1912"/>
    <trip id="338" depart="943.00" from="-1912" to="1916"/>
    <trip id="339" depart="948.00" from="-1072" to="315"/>
    <trip id="340" depart="951.00" from="-315" to="462"/>
    <trip id="341" depart="952.00" from="-1916" to="-307"/>
    <trip id="342" depart="953.00" from="-1912" to="-270"/>
    <trip id="343" depart="954.00" from="-1916" to="1912"/>
    <trip id="344" depart="954.00" from="-462" to="1916"/>
    <trip id="345" depart="955.00" from="270" to="1916"/>
    <trip id="346" depart="964.00" from="-1072" to="315"/>
    <trip id="347" depart="965.00" from="-1916" to="315"/>
    <trip id="348" depart="971.00" from="-462" to="315"/>
    <trip id="349" depart="972.00" from="-1912" to="1072"/>
    <trip id="350" depart="979.00" from="-508" to="1916"/>
    <trip id="351" depart="986.00" from="-1916" to="1907"/>
    <trip id="352" depart="991.00" from="-1912" to="462"/>
    <trip id="353" depart="992.00" from="-1072" to="1912"/>
    <trip id="354" depart="993.00" from="-1916" to="-270"/>
    <trip id="355" depart="996.00" from="-1912" to="1072"/>
    <trip id="356" depart="997.00" from="-315" to="462"/>
    <trip id="357" depart="1002.00" from="270" to="462"/>
    <trip id="358" depart="1007.00" from="-1072" to="1907"/>
    <trip id="359" depart="1007.00" from="-1916" to="508"/>
    <trip id="360" depart="1011.00" from="270" to="1912"/>
    <trip id="361" depart="1012.00" from="-508" to="1072"/>
    <trip id="362" depart="1017.00" from="-315" to="1072"/>
    <trip id="363" depart="1019.00" from="-1912" to="1916"/>
    <trip id="364" depart="1022.00" from="-1072" to="1907"/>
    <trip id="365" depart="1031.00" from="270" to="462"/>
    <trip id="366" depart="1039.00" from="-315" to="462"/>
    <trip id="367" depart="1047.00" from="-1912" to="-270"/>
    <trip id="368" depart="1050.00" from="-1072" to="1907"/>
    <trip id="369" depart="1051.00" from="-1916" to="-270"/>
    <trip id="370" depart="1053.00" from="-1907" to="1916"/>
    <trip id="371" depart="1057.00" from="270" to="462"/>
    <trip id="372" depart="1060.00" from="-1907" to="1072"/>
    <trip id="373" depart="1074.00" from="-508" to="1072"/>
    <trip id="374" depart="1081.00" from="-1907" to="1072"/>
    <trip id="375" depart="1084.00" from="270" to="1916"/>
    <trip id="376" depart="1086.00" from="270" to="1912"/>
    <trip id="377" depart="1088.00" from="-1916" to="508"/>
    <trip id="378" depart="1089.00" from="-462" to="315"/>
    <trip id="379" depart="1091.00" from="-1907" to="1916"/>
    <trip id="380" depart="1093.00" from="-508" to="1072"/>
    <trip id="381" depart="1094.00" from="-1907" to="1072"/>
    <trip id="382" depart="1098.00" from="-462" to="-270"/>
    <trip id="383" depart="1100.00" from="-1916" to="-270"/>
    <trip id="384" depart="1101.00" from="-1916" to="1907"/>
    <trip id="385" depart="1103.00" from="-1912" to="1072"/>
    <trip id="386" depart="1107.00" from="-508" to="1916"/>
    <trip id="387" depart="1111.00" from="-1912" to="1072"/>
    <trip id="388" depart="1111.00" from="-1072" to="1912"/>
    <trip id="389" depart="1113.00" from="-1912" to="1916"/>
    <trip id="390" depart="1118.00" from="-462" to="315"/>
    <trip id="391" depart="1118.00" from="-462" to="1916"/>
    <trip id="392" depart="1120.00" from="270" to="462"/>
    <trip id="393" depart="1123.00" from="-1072" to="1907"/>
    <trip id="394" depart="1123.00" from="-1916" to="315"/>
    <trip id="395" depart="1124.00" from="-1916" to="508"/>
    <trip id="396" depart="1126.00" from="-1916" to="1907"/>
    <trip id="397" depart="1126.00" from="-1916" to="1912"/>
    <trip id="398" depart="1126.00" from="-462" to="315"/>
    <trip id="399" depart="1135.00" from="-1072" to="508"/>
    <trip id="400" depart="1136.00" from="270" to="1912"/>
    <trip id="401" depart="1137.00" from="-1912" to="-270"/>
    <trip id="402" depart="1138.00" from="-1072" to="1912"/>
    <trip id="403" depart="1139.00" from="-1912" to="462"/>
    <trip id="404" depart="1140.00" from="-1916" to="1912"/>
    <trip id="405" depart="1142.00" from="270" to="462"/>
    <trip id="406" depart="1143.00" from="-462" to="-270"/>
    <trip id="407" depart="1146.00" from="-1072" to="315"/>
    <trip id="408" depart="1147.00" from="270" to="462"/>
    <trip id="409" depart="1149.00" from="-1907" to="1916"/>
    <trip id="410" depart="1150.00" from="-1916" to="1912"/>
    <trip id="411" depart="1158.00" from="270" to="1912"/>
    <trip id="412" depart="1160.00" from="-1912" to="1916"/>
    <trip id="413" depart="1167.00" from="-462" to="1912"/>
    <trip id="414" depart="1174.00" from="-1907" to="1072"/>
    <trip id="415" depart="1174.00" from="-1916" to="462"/>
    <trip id="416" depart="1177.00" from="-1916" to="315"/>
    <trip id="417" depart="1178.00" from="-1916" to="1912"/>
    <trip id="418" depart="1181.00" from="-1907" to="1916"/>
    <trip id="419" depart="1181.00" from="-1916" to="462"/>
    <trip id="420" depart="1182.00" from="-1916" to="315"/>
    <trip id="421" depart="1184.00" from="-1072" to="1912"/>
    <trip id="422" depart="1190.00" from="-1916" to="508"/>
    <trip id="423" depart="1191.00" from="-1072" to="508"/>
    <trip id="424" depart="1192.00" from="-1912" to="1916"/>
    <trip id="425" depart="1195.00" from="-1912" to="1916"/>
    <trip id="426" depart="1198.00" from="-1907" to="1072"/>
    <trip id="427" depart="1198.00" from="-508" to="1072"/>
    <trip id="428" depart="1199.00" from="-1916" to="1912"/>
    <trip id="429" depart="1201.00" from="-1916" to="462"/>
    <trip id="430" depart="1205.00" from="270" to="1912"/>
    <trip id="431" depart="1208.00" from="-462" to="1912"/>
    <trip id="432" depart="1209.00" from="-1916" to="-270"/>
    <trip id="433" depart="1214.00" from="-1916" to="462"/>
    <trip id="434" depart="1215.00" from="-1912" to="462"/>
    <trip id="435" depart="1217.00" from="270" to="1916"/>
    <trip id="436" depart="1222.00" from="-508" to="1916"/>
    <trip id="437" depart="1222.00" from="-1907" to="1916"/>
    <trip id="438" depart="1226.00" from="-462" to="315"/>
    <trip id="439" depart="1233.00" from="-462" to="1916"/>
    <trip id="440" depart="1233.00" from="-1912" to="462"/>
    <trip id="441" depart="1240.00" from="-508" to="1916"/>
    <trip id="442" depart="1241.00" from="-462" to="315"/>
    <trip id="443" depart="1242.00" from="-1916" to="-270"/>
    <trip id="444" depart="1250.00" from="-462" to="-270"/>
    <trip id="445" depart="1251.00" from="-1912" to="462"/>
    <trip id="446" depart="1254.00" from="-1912" to="1072"/>
    <trip id="447" depart="1257.00" from="-462" to="315"/>
    <trip id="448" depart="1258.00" from="-508" to="1072"/>
    <trip id="449" depart="1263.00" from="-1072" to="1907"/>
    <trip id="450" depart="1265.00" from="-462" to="-270"/>
    <trip id="451" depart="1270.00" from="-1916" to="315"/>
    <trip id="452" depart="1271.00" from="-1912" to="462"/>
    <trip id="453" depart="1275.00" from="270" to="1916"/>
    <trip id="454" depart="1276.00" from="-1912" to="462"/>
    <trip id="455" depart="1279.00" from="-508" to="1916"/>
    <trip id="456" depart="1285.00" from="-315" to="1072"/>
    <trip id="457" depart="1287.00" from="-1072" to="1907"/>
    <trip id="458" depart="1288.00" from="-1916" to="462"/>
    <trip id="459" depart="1291.00" from="-462" to="1916"/>
    <trip id="460" depart="1293.00" from="-1072" to="315"/>
    <trip id="461" depart="1294.00" from="-1912" to="1072"/>
    <trip id="462" depart="1296.00" from="270" to="1912"/>
    <trip id="463" depart="1304.00" from="-508" to="1916"/>
    <trip id="464" depart="1305.00" from="-508" to="1072"/>
    <trip id="465" depart="1306.00" from="-1072" to="315"/>
    <trip id="466" depart="1308.00" from="-1072" to="1907"/>
    <trip id="467" depart="1308.00" from="-462" to="1916"/>
    <trip id="468" depart="1311.00" from="270" to="1912"/>
    <trip id="469" depart="1312.00" from="-462" to="315"/>
    <trip id="470" depart="1314.00" from="-1912" to="1072"/>
    <trip id="471" depart="1318.00" from="-462" to="1916"/>
    <trip id="472" depart="1319.00" from="-1907" to="1072"/>
    <trip id="473" depart="1320.00" from="-508" to="1072"/>
    <trip id="474" depart="1323.00" from="-1916" to="-270"/>
    <trip id="475" depart="1329.00" from="-1912" to="-270"/>
    <trip id="476" depart="1331.00" from="-1912" to="1916"/>
    <trip id="477" depart="1333.00" from="-1912" to="-270"/>
    <trip id="478" depart="1333.00" from="-1912" to="1072"/>
    <trip id="479" depart="1333.00" from="-1916" to="462"/>
    <trip id="480" depart="1348.00" from="-1907" to="1916"/>
    <trip id="481" depart="1349.00" from="-462" to="315"/>
    <trip id="482" depart="1349.00" from="-1916" to="1912"/>
    <trip id="483" depart="1353.00" from="-1912" to="1916"/>