<?xml version="1.0" encoding="UTF-8"?>

<!-- generated on 2025-03-19 17:43:58.462912 by randomTrips.py v1_22_0+0449-9311ec3459f
<configuration>
    <net-file value="random_subnetwork_3.net.xml"/>
    <output-trip-file value="random_subnetwork_3_heavy.trips.xml"/>
    <fringe-factor value="100"/>
    <min-distance value="600.0"/>
    <remove-loops value="True"/>
    <validate value="True"/>
    <period value="2.0"/>
    <random-depart value="True"/>
    <binomial value="10"/>
</configuration>
-->

<!-- generated on 2025-03-19 17:43:58 by Eclipse SUMO duarouter Version v1_22_0+0449-9311ec3459f
<duarouterConfiguration xmlns:xsi="http://www.w3.org/2001/XMLSchema-instance" xsi:noNamespaceSchemaLocation="http://sumo.dlr.de/xsd/duarouterConfiguration.xsd">

    <input>
        <net-file value="random_subnetwork_3.net.xml"/>
        <route-files value="random_subnetwork_3_heavy.trips.xml"/>
    </input>

    <output>
        <output-file value="random_subnetwork_3_heavy.trips.xml.tmp"/>
        <alternatives-output value="NUL"/>
        <write-trips value="true"/>
    </output>

    <processing>
        <remove-loops value="true"/>
    </processing>

    <time>
        <begin value="0.0"/>
        <end value="3600.0"/>
    </time>

    <report>
        <no-warnings value="true"/>
        <ignore-errors value="true"/>
        <no-step-log value="true"/>
    </report>

</duarouterConfiguration>
-->

<routes xmlns:xsi="http://www.w3.org/2001/XMLSchema-instance" xsi:noNamespaceSchemaLocation="http://sumo.dlr.de/xsd/routes_file.xsd">
    <trip id="0" depart="0.00" from="-1799" to="-353"/>
    <trip id="1" depart="0.00" from="353" to="1799"/>
    <trip id="2" depart="2.00" from="-1799" to="-353"/>
    <trip id="3" depart="4.00" from="353" to="1799"/>
    <trip id="4" depart="6.00" from="353" to="1799"/>
    <trip id="5" depart="6.00" from="353" to="1799"/>
    <trip id="6" depart="7.00" from="353" to="1799"/>
    <trip id="7" depart="21.00" from="353" to="1799"/>
    <trip id="8" depart="23.00" from="-1799" to="-353"/>
    <trip id="9" depart="26.00" from="353" to="1799"/>
    <trip id="10" depart="26.00" from="-1799" to="-353"/>
    <trip id="11" depart="27.00" from="-1799" to="-353"/>
    <trip id="12" depart="27.00" from="353" to="1799"/>
    <trip id="13" depart="28.00" from="-1799" to="-353"/>
    <trip id="14" depart="29.00" from="353" to="1799"/>
    <trip id="15" depart="33.00" from="-1799" to="-353"/>
    <trip id="16" depart="36.00" from="353" to="1799"/>
    <trip id="17" depart="40.00" from="353" to="1799"/>
    <trip id="18" depart="42.00" from="353" to="1799"/>
    <trip id="19" depart="50.00" from="353" to="1799"/>
    <trip id="20" depart="51.00" from="353" to="1799"/>
    <trip id="21" depart="52.00" from="353" to="1799"/>
    <trip id="22" depart="52.00" from="353" to="1799"/>
    <trip id="23" depart="54.00" from="353" to="1799"/>
    <trip id="24" depart="58.00" from="-1799" to="-353"/>
    <trip id="25" depart="61.00" from="-1799" to="-353"/>
    <trip id="26" depart="62.00" from="-1799" to="-353"/>
    <trip id="27" depart="62.00" from="-1799" to="-353"/>
    <trip id="28" depart="64.00" from="-1799" to="-353"/>
    <trip id="29" depart="65.00" from="-1799" to="-353"/>
    <trip id="30" depart="66.00" from="-1799" to="-353"/>
    <trip id="31" depart="76.00" from="353" to="1799"/>
    <trip id="32" depart="79.00" from="-1799" to="-353"/>
    <trip id="33" depart="80.00" from="353" to="1799"/>
    <trip id="34" depart="81.00" from="-1799" to="-353"/>
    <trip id="35" depart="81.00" from="-1799" to="-353"/>
    <trip id="36" depart="86.00" from="353" to="1799"/>
    <trip id="37" depart="89.00" from="353" to="1799"/>
    <trip id="38" depart="93.00" from="353" to="1799"/>
    <trip id="39" depart="94.00" from="-1799" to="-353"/>
    <trip id="40" depart="100.00" from="353" to="1799"/>
    <trip id="41" depart="102.00" from="353" to="1799"/>
    <trip id="42" depart="106.00" from="-1799" to="-353"/>
    <trip id="43" depart="111.00" from="353" to="1799"/>
    <trip id="44" depart="112.00" from="353" to="1799"/>
    <trip id="45" depart="112.00" from="-1799" to="-353"/>
    <trip id="46" depart="112.00" from="353" to="1799"/>
    <trip id="47" depart="116.00" from="353" to="1799"/>
    <trip id="48" depart="120.00" from="-1799" to="-353"/>
    <trip id="49" depart="122.00" from="-1799" to="-353"/>
    <trip id="50" depart="122.00" from="-1799" to="-353"/>
    <trip id="51" depart="124.00" from="353" to="1799"/>
    <trip id="52" depart="126.00" from="353" to="1799"/>
    <trip id="53" depart="132.00" from="353" to="1799"/>
    <trip id="54" depart="132.00" from="-1799" to="-353"/>
    <trip id="55" depart="133.00" from="-1799" to="-353"/>
    <trip id="56" depart="137.00" from="-1799" to="-353"/>
    <trip id="57" depart="138.00" from="353" to="1799"/>
    <trip id="58" depart="143.00" from="353" to="1799"/>
    <trip id="59" depart="143.00" from="353" to="1799"/>
    <trip id="60" depart="143.00" from="353" to="1799"/>
    <trip id="61" depart="145.00" from="-1799" to="-353"/>
    <trip id="62" depart="149.00" from="-1799" to="-353"/>
    <trip id="63" depart="153.00" from="353" to="1799"/>
    <trip id="64" depart="155.00" from="353" to="1799"/>
    <trip id="65" depart="155.00" from="-1799" to="-353"/>
    <trip id="66" depart="158.00" from="353" to="1799"/>
    <trip id="67" depart="159.00" from="-1799" to="-353"/>
    <trip id="68" depart="160.00" from="-1799" to="-353"/>
    <trip id="69" depart="160.00" from="353" to="1799"/>
    <trip id="70" depart="161.00" from="353" to="1799"/>
    <trip id="71" depart="162.00" from="353" to="1799"/>
    <trip id="72" depart="162.00" from="353" to="1799"/>
    <trip id="73" depart="165.00" from="-1799" to="-353"/>
    <trip id="74" depart="165.00" from="-1799" to="-353"/>
    <trip id="75" depart="174.00" from="353" to="1799"/>
    <trip id="76" depart="177.00" from="353" to="1799"/>
    <trip id="77" depart="181.00" from="-1799" to="-353"/>
    <trip id="78" depart="185.00" from="353" to="1799"/>
    <trip id="79" depart="185.00" from="353" to="1799"/>
    <trip id="80" depart="187.00" from="353" to="1799"/>
    <trip id="81" depart="187.00" from="-1799" to="-353"/>
    <trip id="82" depart="188.00" from="353" to="1799"/>
    <trip id="83" depart="188.00" from="-1799" to="-353"/>
    <trip id="84" depart="189.00" from="353" to="1799"/>
    <trip id="85" depart="191.00" from="353" to="1799"/>
    <trip id="86" depart="191.00" from="-1799" to="-353"/>
    <trip id="87" depart="193.00" from="353" to="1799"/>
    <trip id="88" depart="197.00" from="353" to="1799"/>
    <trip id="89" depart="197.00" from="353" to="1799"/>
    <trip id="90" depart="202.00" from="353" to="1799"/>
    <trip id="91" depart="202.00" from="-1799" to="-353"/>
    <trip id="92" depart="203.00" from="353" to="1799"/>
    <trip id="93" depart="205.00" from="353" to="1799"/>
    <trip id="94" depart="209.00" from="-1799" to="-353"/>
    <trip id="95" depart="211.00" from="353" to="1799"/>
    <trip id="96" depart="214.00" from="353" to="1799"/>
    <trip id="97" depart="218.00" from="-1799" to="-353"/>
    <trip id="98" depart="219.00" from="353" to="1799"/>
    <trip id="99" depart="220.00" from="353" to="1799"/>
    <trip id="100" depart="223.00" from="-1799" to="-353"/>
    <trip id="101" depart="223.00" from="353" to="1799"/>
    <trip id="102" depart="224.00" from="-1799" to="-353"/>
    <trip id="103" depart="224.00" from="-1799" to="-353"/>
    <trip id="104" depart="228.00" from="-1799" to="-353"/>
    <trip id="105" depart="229.00" from="353" to="1799"/>
    <trip id="106" depart="231.00" from="353" to="1799"/>
    <trip id="107" depart="232.00" from="353" to="1799"/>
    <trip id="108" depart="236.00" from="353" to="1799"/>
    <trip id="109" depart="238.00" from="-1799" to="-353"/>
    <trip id="110" depart="239.00" from="353" to="1799"/>
    <trip id="111" depart="240.00" from="353" to="1799"/>
    <trip id="112" depart="240.00" from="353" to="1799"/>
    <trip id="113" depart="240.00" from="-1799" to="-353"/>
    <trip id="114" depart="243.00" from="-1799" to="-353"/>
    <trip id="115" depart="246.00" from="-1799" to="-353"/>
    <trip id="116" depart="250.00" from="-1799" to="-353"/>
    <trip id="117" depart="254.00" from="353" to="1799"/>
    <trip id="118" depart="258.00" from="-1799" to="-353"/>
    <trip id="119" depart="262.00" from="353" to="1799"/>
    <trip id="120" depart="262.00" from="353" to="1799"/>
    <trip id="121" depart="262.00" from="-1799" to="-353"/>
    <trip id="122" depart="263.00" from="-1799" to="-353"/>
    <trip id="123" depart="268.00" from="353" to="1799"/>
    <trip id="124" depart="269.00" from="353" to="1799"/>
    <trip id="125" depart="274.00" from="-1799" to="-353"/>
    <trip id="126" depart="275.00" from="353" to="1799"/>
    <trip id="127" depart="275.00" from="353" to="1799"/>
    <trip id="128" depart="276.00" from="-1799" to="-353"/>
    <trip id="129" depart="276.00" from="-1799" to="-353"/>
    <trip id="130" depart="279.00" from="353" to="1799"/>
    <trip id="131" depart="281.00" from="-1799" to="-353"/>
    <trip id="132" depart="286.00" from="-1799" to="-353"/>
    <trip id="133" depart="287.00" from="353" to="1799"/>
    <trip id="134" depart="290.00" from="353" to="1799"/>
    <trip id="135" depart="290.00" from="-1799" to="-353"/>
    <trip id="136" depart="291.00" from="-1799" to="-353"/>
    <trip id="137" depart="295.00" from="353" to="1799"/>
    <trip id="138" depart="295.00" from="353" to="1799"/>
    <trip id="139" depart="297.00" from="-1799" to="-353"/>
    <trip id="140" depart="298.00" from="353" to="1799"/>
    <trip id="141" depart="303.00" from="353" to="1799"/>
    <trip id="142" depart="304.00" from="353" to="1799"/>
    <trip id="143" depart="304.00" from="-1799" to="-353"/>
    <trip id="144" depart="305.00" from="-1799" to="-353"/>
    <trip id="145" depart="305.00" from="353" to="1799"/>
    <trip id="146" depart="307.00" from="-1799" to="-353"/>
    <trip id="147" depart="308.00" from="353" to="1799"/>
    <trip id="148" depart="309.00" from="-1799" to="-353"/>
    <trip id="149" depart="310.00" from="353" to="1799"/>
    <trip id="150" depart="316.00" from="353" to="1799"/>
    <trip id="151" depart="317.00" from="353" to="1799"/>
    <trip id="152" depart="317.00" from="353" to="1799"/>
    <trip id="153" depart="321.00" from="-1799" to="-353"/>
    <trip id="154" depart="321.00" from="353" to="1799"/>
    <trip id="155" depart="322.00" from="353" to="1799"/>
    <trip id="156" depart="323.00" from="353" to="1799"/>
    <trip id="157" depart="326.00" from="353" to="1799"/>
    <trip id="158" depart="331.00" from="-1799" to="-353"/>
    <trip id="159" depart="333.00" from="-1799" to="-353"/>
    <trip id="160" depart="334.00" from="353" to="1799"/>
    <trip id="161" depart="335.00" from="-1799" to="-353"/>
    <trip id="162" depart="338.00" from="-1799" to="-353"/>
    <trip id="163" depart="344.00" from="353" to="1799"/>
    <trip id="164" depart="346.00" from="353" to="1799"/>
    <trip id="165" depart="348.00" from="353" to="1799"/>
    <trip id="166" depart="351.00" from="353" to="1799"/>
    <trip id="167" depart="354.00" from="-1799" to="-353"/>
    <trip id="168" depart="354.00" from="353" to="1799"/>
    <trip id="169" depart="359.00" from="353" to="1799"/>
    <trip id="170" depart="361.00" from="353" to="1799"/>
    <trip id="171" depart="362.00" from="-1799" to="-353"/>
    <trip id="172" depart="369.00" from="-1799" to="-353"/>
    <trip id="173" depart="370.00" from="-1799" to="-353"/>
    <trip id="174" depart="372.00" from="-1799" to="-353"/>
    <trip id="175" depart="374.00" from="-1799" to="-353"/>
    <trip id="176" depart="374.00" from="353" to="1799"/>
    <trip id="177" depart="375.00" from="-1799" to="-353"/>
    <trip id="178" depart="378.00" from="353" to="1799"/>
    <trip id="179" depart="379.00" from="-1799" to="-353"/>
    <trip id="180" depart="382.00" from="-1799" to="-353"/>
    <trip id="181" depart="384.00" from="-1799" to="-353"/>
    <trip id="182" depart="385.00" from="-1799" to="-353"/>
    <trip id="183" depart="386.00" from="353" to="1799"/>
    <trip id="184" depart="386.00" from="-1799" to="-353"/>
    <trip id="185" depart="387.00" from="-1799" to="-353"/>
    <trip id="186" depart="388.00" from="353" to="1799"/>
    <trip id="187" depart="390.00" from="353" to="1799"/>
    <trip id="188" depart="391.00" from="-1799" to="-353"/>
    <trip id="189" depart="394.00" from="353" to="1799"/>
    <trip id="190" depart="394.00" from="-1799" to="-353"/>
    <trip id="191" depart="395.00" from="-1799" to="-353"/>
    <trip id="192" depart="398.00" from="353" to="1799"/>
    <trip id="193" depart="399.00" from="353" to="1799"/>
    <trip id="194" depart="403.00" from="-1799" to="-353"/>
    <trip id="195" depart="404.00" from="353" to="1799"/>
    <trip id="196" depart="406.00" from="353" to="1799"/>
    <trip id="197" depart="407.00" from="-1799" to="-353"/>
    <trip id="198" depart="409.00" from="353" to="1799"/>
    <trip id="199" depart="409.00" from="353" to="1799"/>
    <trip id="200" depart="415.00" from="-1799" to="-353"/>
    <trip id="201" depart="415.00" from="-1799" to="-353"/>
    <trip id="202" depart="417.00" from="353" to="1799"/>
    <trip id="203" depart="419.00" from="353" to="1799"/>
    <trip id="204" depart="421.00" from="-1799" to="-353"/>
    <trip id="205" depart="422.00" from="-1799" to="-353"/>
    <trip id="206" depart="423.00" from="-1799" to="-353"/>
    <trip id="207" depart="426.00" from="-1799" to="-353"/>
    <trip id="208" depart="429.00" from="-1799" to="-353"/>
    <trip id="209" depart="431.00" from="353" to="1799"/>
    <trip id="210" depart="434.00" from="-1799" to="-353"/>
    <trip id="211" depart="434.00" from="-1799" to="-353"/>
    <trip id="212" depart="437.00" from="-1799" to="-353"/>
    <trip id="213" depart="442.00" from="-1799" to="-353"/>
    <trip id="214" depart="443.00" from="-1799" to="-353"/>
    <trip id="215" depart="451.00" from="-1799" to="-353"/>
    <trip id="216" depart="454.00" from="-1799" to="-353"/>
    <trip id="217" depart="455.00" from="353" to="1799"/>
    <trip id="218" depart="456.00" from="353" to="1799"/>
    <trip id="219" depart="458.00" from="-1799" to="-353"/>
    <trip id="220" depart="461.00" from="353" to="1799"/>
    <trip id="221" depart="464.00" from="353" to="1799"/>
    <trip id="222" depart="472.00" from="353" to="1799"/>
    <trip id="223" depart="478.00" from="353" to="1799"/>
    <trip id="224" depart="480.00" from="353" to="1799"/>
    <trip id="225" depart="484.00" from="-1799" to="-353"/>
    <trip id="226" depart="485.00" from="353" to="1799"/>
    <trip id="227" depart="486.00" from="353" to="1799"/>
    <trip id="228" depart="493.00" from="-1799" to="-353"/>
    <trip id="229" depart="493.00" from="-1799" to="-353"/>
    <trip id="230" depart="496.00" from="-1799" to="-353"/>
    <trip id="231" depart="498.00" from="-1799" to="-353"/>
    <trip id="232" depart="499.00" from="-1799" to="-353"/>
    <trip id="233" depart="501.00" from="-1799" to="-353"/>
    <trip id="234" depart="503.00" from="-1799" to="-353"/>
    <trip id="235" depart="504.00" from="-1799" to="-353"/>
    <trip id="236" depart="506.00" from="-1799" to="-353"/>
    <trip id="237" depart="507.00" from="-1799" to="-353"/>
    <trip id="238" depart="507.00" from="-1799" to="-353"/>
    <trip id="239" depart="508.00" from="353" to="1799"/>
    <trip id="240" depart="512.00" from="353" to="1799"/>
    <trip id="241" depart="515.00" from="-1799" to="-353"/>
    <trip id="242" depart="516.00" from="-1799" to="-353"/>
    <trip id="243" depart="518.00" from="353" to="1799"/>
    <trip id="244" depart="519.00" from="353" to="1799"/>
    <trip id="245" depart="524.00" from="353" to="1799"/>
    <trip id="246" depart="526.00" from="353" to="1799"/>
    <trip id="247" depart="528.00" from="353" to="1799"/>
    <trip id="248" depart="529.00" from="353" to="1799"/>
    <trip id="249" depart="530.00" from="-1799" to="-353"/>
    <trip id="250" depart="532.00" from="353" to="1799"/>
    <trip id="251" depart="533.00" from="-1799" to="-353"/>
    <trip id="252" depart="533.00" from="353" to="1799"/>
    <trip id="253" depart="536.00" from="-1799" to="-353"/>
    <trip id="254" depart="536.00" from="-1799" to="-353"/>
    <trip id="255" depart="536.00" from="353" to="1799"/>
    <trip id="256" depart="540.00" from="353" to="1799"/>
    <trip id="257" depart="540.00" from="353" to="1799"/>
    <trip id="258" depart="543.00" from="353" to="1799"/>
    <trip id="259" depart="544.00" from="-1799" to="-353"/>
    <trip id="260" depart="549.00" from="-1799" to="-353"/>
    <trip id="261" depart="552.00" from="-1799" to="-353"/>
    <trip id="262" depart="552.00" from="-1799" to="-353"/>
    <trip id="263" depart="555.00" from="-1799" to="-353"/>
    <trip id="264" depart="556.00" from="353" to="1799"/>
    <trip id="265" depart="557.00" from="353" to="1799"/>
    <trip id="266" depart="559.00" from="-1799" to="-353"/>
    <trip id="267" depart="563.00" from="353" to="1799"/>
    <trip id="268" depart="563.00" from="-1799" to="-353"/>
    <trip id="269" depart="564.00" from="-1799" to="-353"/>
    <trip id="270" depart="568.00" from="353" to="1799"/>
    <trip id="271" depart="570.00" from="-1799" to="-353"/>
    <trip id="272" depart="579.00" from="-1799" to="-353"/>
    <trip id="273" depart="579.00" from="353" to="1799"/>
    <trip id="274" depart="579.00" from="353" to="1799"/>
    <trip id="275" depart="580.00" from="-1799" to="-353"/>
    <trip id="276" depart="581.00" from="-1799" to="-353"/>
    <trip id="277" depart="584.00" from="-1799" to="-353"/>
    <trip id="278" depart="585.00" from="353" to="1799"/>
    <trip id="279" depart="587.00" from="-1799" to="-353"/>
    <trip id="280" depart="589.00" from="-1799" to="-353"/>
    <trip id="281" depart="589.00" from="353" to="1799"/>
    <trip id="282" depart="591.00" from="-1799" to="-353"/>
    <trip id="283" depart="597.00" from="353" to="1799"/>
    <trip id="284" depart="602.00" from="-1799" to="-353"/>
    <trip id="285" depart="606.00" from="-1799" to="-353"/>
    <trip id="286" depart="612.00" from="-1799" to="-353"/>
    <trip id="287" depart="613.00" from="353" to="1799"/>
    <trip id="288" depart="613.00" from="-1799" to="-353"/>
    <trip id="289" depart="615.00" from="353" to="1799"/>
    <trip id="290" depart="618.00" from="353" to="1799"/>
    <trip id="291" depart="624.00" from="-1799" to="-353"/>
    <trip id="292" depart="625.00" from="353" to="1799"/>
    <trip id="293" depart="626.00" from="-1799" to="-353"/>
    <trip id="294" depart="628.00" from="353" to="1799"/>
    <trip id="295" depart="630.00" from="-1799" to="-353"/>
    <trip id="296" depart="630.00" from="353" to="1799"/>
    <trip id="297" depart="630.00" from="353" to="1799"/>
    <trip id="298" depart="632.00" from="353" to="1799"/>
    <trip id="299" depart="633.00" from="-1799" to="-353"/>
    <trip id="300" depart="638.00" from="353" to="1799"/>
    <trip id="301" depart="639.00" from="353" to="1799"/>
    <trip id="302" depart="640.00" from="-1799" to="-353"/>
    <trip id="303" depart="643.00" from="353" to="1799"/>
    <trip id="304" depart="646.00" from="353" to="1799"/>
    <trip id="305" depart="646.00" from="353" to="1799"/>
    <trip id="306" depart="652.00" from="-1799" to="-353"/>
    <trip id="307" depart="655.00" from="353" to="1799"/>
    <trip id="308" depart="657.00" from="353" to="1799"/>
    <trip id="309" depart="660.00" from="-1799" to="-353"/>
    <trip id="310" depart="664.00" from="353" to="1799"/>
    <trip id="311" depart="670.00" from="353" to="1799"/>
    <trip id="312" depart="671.00" from="353" to="1799"/>
    <trip id="313" depart="674.00" from="353" to="1799"/>
    <trip id="314" depart="675.00" from="-1799" to="-353"/>
    <trip id="315" depart="680.00" from="353" to="1799"/>
    <trip id="316" depart="685.00" from="-1799" to="-353"/>
    <trip id="317" depart="689.00" from="353" to="1799"/>
    <trip id="318" depart="689.00" from="-1799" to="-353"/>
    <trip id="319" depart="690.00" from="353" to="1799"/>
    <trip id="320" depart="693.00" from="353" to="1799"/>
    <trip id="321" depart="695.00" from="353" to="1799"/>
    <trip id="322" depart="696.00" from="353" to="1799"/>
    <trip id="323" depart="704.00" from="353" to="1799"/>
    <trip id="324" depart="710.00" from="-1799" to="-353"/>
    <trip id="325" depart="710.00" from="-1799" to="-353"/>
    <trip id="326" depart="718.00" from="-1799" to="-353"/>
    <trip id="327" depart="720.00" from="-1799" to="-353"/>
    <trip id="328" depart="721.00" from="353" to="1799"/>
    <trip id="329" depart="726.00" from="353" to="1799"/>
    <trip id="330" depart="727.00" from="-1799" to="-353"/>
    <trip id="331" depart="727.00" from="-1799" to="-353"/>
    <trip id="332" depart="728.00" from="-1799" to="-353"/>
    <trip id="333" depart="734.00" from="-1799" to="-353"/>
    <trip id="334" depart="741.00" from="-1799" to="-353"/>
    <trip id="335" depart="746.00" from="353" to="1799"/>
    <trip id="336" depart="749.00" from="-1799" to="-353"/>
    <trip id="337" depart="751.00" from="353" to="1799"/>
    <trip id="338" depart="752.00" from="-1799" to="-353"/>
    <trip id="339" depart="753.00" from="353" to="1799"/>
    <trip id="340" depart="754.00" from="-1799" to="-353"/>
    <trip id="341" depart="755.00" from="-1799" to="-353"/>
    <trip id="342" depart="758.00" from="353" to="1799"/>
    <trip id="343" depart="759.00" from="353" to="1799"/>
    <trip id="344" depart="759.00" from="-1799" to="-353"/>
    <trip id="345" depart="759.00" from="353" to="1799"/>
    <trip id="346" depart="762.00" from="353" to="1799"/>
    <trip id="347" depart="765.00" from="-1799" to="-353"/>
    <trip id="348" depart="767.00" from="-1799" to="-353"/>
    <trip id="349" depart="769.00" from="-1799" to="-353"/>
    <trip id="350" depart="770.00" from="353" to="1799"/>
    <trip id="351" depart="771.00" from="-1799" to="-353"/>
    <trip id="352" depart="772.00" from="-1799" to="-353"/>
    <trip id="353" depart="776.00" from="-1799" to="-353"/>
    <trip id="354" depart="776.00" from="-1799" to="-353"/>
    <trip id="355" depart="778.00" from="353" to="1799"/>
    <trip id="356" depart="779.00" from="-1799" to="-353"/>
    <trip id="357" depart="780.00" from="-1799" to="-353"/>
    <trip id="358" depart="782.00" from="353" to="1799"/>
    <trip id="359" depart="782.00" from="353" to="1799"/>
    <trip id="360" depart="783.00" from="-1799" to="-353"/>
    <trip id="361" depart="783.00" from="-1799" to="-353"/>
    <trip id="362" depart="785.00" from="353" to="1799"/>
    <trip id="363" depart="787.00" from="-1799" to="-353"/>
    <trip id="364" depart="795.00" from="353" to="1799"/>
    <trip id="365" depart="798.00" from="-1799" to="-353"/>
    <trip id="366" depart="802.00" from="353" to="1799"/>
    <trip id="367" depart="808.00" from="-1799" to="-353"/>
    <trip id="368" depart="810.00" from="353" to="1799"/>
    <trip id="369" depart="812.00" from="-1799" to="-353"/>
    <trip id="370" depart="815.00" from="353" to="1799"/>
    <trip id="371" depart="816.00" from="353" to="1799"/>
    <trip id="372" depart="819.00" from="353" to="1799"/>
    <trip id="373" depart="820.00" from="-1799" to="-353"/>
    <trip id="374" depart="821.00" from="353" to="1799"/>
    <trip id="375" depart="821.00" from="-1799" to="-353"/>
    <trip id="376" depart="823.00" from="-1799" to="-353"/>
    <trip id="377" depart="825.00" from="-1799" to="-353"/>
    <trip id="378" depart="825.00" from="353" to="1799"/>
    <trip id="379" depart="827.00" from="353" to="1799"/>
    <trip id="380" depart="827.00" from="353" to="1799"/>
    <trip id="381" depart="830.00" from="-1799" to="-353"/>
    <trip id="382" depart="831.00" from="353" to="1799"/>
    <trip id="383" depart="833.00" from="-1799" to="-353"/>
    <trip id="384" depart="834.00" from="353" to="1799"/>
    <trip id="385" depart="835.00" from="353" to="1799"/>
    <trip id="386" depart="838.00" from="353" to="1799"/>
    <trip id="387" depart="841.00" from="-1799" to="-353"/>
    <trip id="388" depart="843.00" from="-1799" to="-353"/>
    <trip id="389" depart="844.00" from="-1799" to="-353"/>
    <trip id="390" depart="851.00" from="353" to="1799"/>
    <trip id="391" depart="852.00" from="-1799" to="-353"/>
    <trip id="392" depart="858.00" from="-1799" to="-353"/>
    <trip id="393" depart="859.00" from="-1799" to="-353"/>
    <trip id="394" depart="866.00" from="353" to="1799"/>
    <trip id="395" depart="866.00" from="-1799" to="-353"/>
    <trip id="396" depart="866.00" from="-1799" to="-353"/>
    <trip id="397" depart="869.00" from="-1799" to="-353"/>
    <trip id="398" depart="870.00" from="-1799" to="-353"/>
    <trip id="399" depart="870.00" from="-1799" to="-353"/>
    <trip id="400" depart="873.00" from="-1799" to="-353"/>
    <trip id="401" depart="875.00" from="353" to="1799"/>
    <trip id="402" depart="879.00" from="-1799" to="-353"/>
    <trip id="403" depart="880.00" from="-1799" to="-353"/>
    <trip id="404" depart="884.00" from="-1799" to="-353"/>
    <trip id="405" depart="885.00" from="-1799" to="-353"/>
    <trip id="406" depart="889.00" from="353" to="1799"/>
    <trip id="407" depart="889.00" from="353" to="1799"/>
    <trip id="408" depart="889.00" from="353" to="1799"/>
    <trip id="409" depart="891.00" from="-1799" to="-353"/>
    <trip id="410" depart="892.00" from="353" to="1799"/>
    <trip id="411" depart="893.00" from="353" to="1799"/>
    <trip id="412" depart="896.00" from="353" to="1799"/>
    <trip id="413" depart="896.00" from="353" to="1799"/>
    <trip id="414" depart="900.00" from="353" to="1799"/>
    <trip id="415" depart="900.00" from="-1799" to="-353"/>
    <trip id="416" depart="901.00" from="353" to="1799"/>
    <trip id="417" depart="903.00" from="353" to="1799"/>
    <trip id="418" depart="904.00" from="-1799" to="-353"/>
    <trip id="419" depart="908.00" from="-1799" to="-353"/>
    <trip id="420" depart="909.00" from="353" to="1799"/>
    <trip id="421" depart="909.00" from="353" to="1799"/>
    <trip id="422" depart="910.00" from="353" to="1799"/>
    <trip id="423" depart="911.00" from="353" to="1799"/>
    <trip id="424" depart="912.00" from="353" to="1799"/>
    <trip id="425" depart="913.00" from="-1799" to="-353"/>
    <trip id="426" depart="913.00" from="-1799" to="-353"/>
    <trip id="427" depart="914.00" from="353" to="1799"/>
    <trip id="428" depart="928.00" from="-1799" to="-353"/>
    <trip id="429" depart="931.00" from="353" to="1799"/>
    <trip id="430" depart="932.00" from="-1799" to="-353"/>
    <trip id="431" depart="933.00" from="-1799" to="-353"/>
    <trip id="432" depart="934.00" from="-1799" to="-353"/>
    <trip id="433" depart="938.00" from="-1799" to="-353"/>
    <trip id="434" depart="938.00" from="353" to="1799"/>
    <trip id="435" depart="939.00" from="-1799" to="-353"/>
    <trip id="436" depart="939.00" from="353" to="1799"/>
    <trip id="437" depart="940.00" from="353" to="1799"/>
    <trip id="438" depart="941.00" from="353" to="1799"/>
    <trip id="439" depart="943.00" from="-1799" to="-353"/>
    <trip id="440" depart="944.00" from="-1799" to="-353"/>
    <trip id="441" depart="945.00" from="353" to="1799"/>
    <trip id="442" depart="946.00" from="353" to="1799"/>
    <trip id="443" depart="948.00" from="353" to="1799"/>
    <trip id="444" depart="948.00" from="-1799" to="-353"/>
    <trip id="445" depart="953.00" from="-1799" to="-353"/>
    <trip id="446" depart="953.00" from="353" to="1799"/>
    <trip id="447" depart="960.00" from="353" to="1799"/>
    <trip id="448" depart="962.00" from="-1799" to="-353"/>
    <trip id="449" depart="965.00" from="353" to="1799"/>
    <trip id="450" depart="965.00" from="-1799" to="-353"/>
    <trip id="451" depart="968.00" from="-1799" to="-353"/>
    <trip id="452" depart="968.00" from="353" to="1799"/>
    <trip id="453" depart="969.00" from="-1799" to="-353"/>
    <trip id="454" depart="972.00" from="-1799" to="-353"/>
    <trip id="455" depart="972.00" from="353" to="1799"/>
    <trip id="456" depart="972.00" from="-1799" to="-353"/>
    <trip id="457" depart="973.00" from="353" to="1799"/>
    <trip id="458" depart="975.00" from="353" to="1799"/>
    <trip id="459" depart="975.00" from="353" to="1799"/>
    <trip id="460" depart="980.00" from="353" to="1799"/>
    <trip id="461" depart="981.00" from="-1799" to="-353"/>
    <trip id="462" depart="982.00" from="353" to="1799"/>
    <trip id="463" depart="985.00" from="353" to="1799"/>
    <trip id="464" depart="986.00" from="-1799" to="-353"/>
    <trip id="465" depart="988.00" from="-1799" to="-353"/>
    <trip id="466" depart="989.00" from="-1799" to="-353"/>
    <trip id="467" depart="991.00" from="-1799" to="-353"/>
    <trip id="468" depart="992.00" from="-1799" to="-353"/>
    <trip id="469" depart="993.00" from="-1799" to="-353"/>
    <trip id="470" depart="995.00" from="353" to="1799"/>
    <trip id="471" depart="999.00" from="-1799" to="-353"/>
    <trip id="472" depart="1000.00" from="353" to="1799"/>
    <trip id="473" depart="1001.00" from="353" to="1799"/>
    <trip id="474" depart="1005.00" from="-1799" to="-353"/>
    <trip id="475" depart="1019.00" from="-1799" to="-353"/>
    <trip id="476" depart="1021.00" from="353" to="1799"/>
    <trip id="477" depart="1021.00" from="-1799" to="-353"/>
    <trip id="478" depart="1022.00" from="353" to="1799"/>
    <trip id="479" depart="1023.00" from="-1799" to="-353"/>
    <trip id="480" depart="1024.00" from="353" to="1799"/>
    <trip id="481" depart="1032.00" from="353" to="1799"/>
    <trip id="482" depart="1032.00" from="353" to="1799"/>
    <trip id="483" depart="1032.00" from="-1799" to="-353"/>