<?xml version="1.0" encoding="UTF-8"?>

<!-- generated on 2025-03-10 19:14:57.134497 by randomTrips.py v1_19_0+1770-8bb5c24c187
<configuration>
    <net-file value="random_subnetwork_4.net.xml"/>
    <output-trip-file value="random_subnetwork_4_medium.trips.xml"/>
    <length value="True"/>
    <fringe-factor value="100"/>
    <min-distance value="800.0"/>
    <remove-loops value="True"/>
    <validate value="True"/>
    <period value="2.0662342880101017"/>
    <random-depart value="True"/>
    <binomial value="10"/>
</configuration>
-->

<!-- generated on 2025-03-10 19:14:57 by Eclipse SUMO duarouter Version v1_19_0+1770-8bb5c24c187
<configuration xmlns:xsi="http://www.w3.org/2001/XMLSchema-instance" xsi:noNamespaceSchemaLocation="http://sumo.dlr.de/xsd/duarouterConfiguration.xsd">

    <input>
        <net-file value="random_subnetwork_4.net.xml"/>
        <route-files value="random_subnetwork_4_medium.trips.xml"/>
    </input>

    <output>
        <output-file value="random_subnetwork_4_medium.trips.xml.tmp"/>
        <alternatives-output value="NUL"/>
        <write-trips value="true"/>
    </output>

    <processing>
        <remove-loops value="true"/>
    </processing>

    <time>
        <begin value="0.0"/>
        <end value="3600.0"/>
    </time>

    <report>
        <no-warnings value="true"/>
        <ignore-errors value="true"/>
        <no-step-log value="true"/>
    </report>

</duarouterConfiguration>
-->

<routes xmlns:xsi="http://www.w3.org/2001/XMLSchema-instance" xsi:noNamespaceSchemaLocation="http://sumo.dlr.de/xsd/routes_file.xsd"/>
