<?xml version="1.0" encoding="UTF-8"?>

<!-- generated on 2025-03-09 18:44:43 by Eclipse SUMO netedit Version 1.20.0
<configuration xmlns:xsi="http://www.w3.org/2001/XMLSchema-instance" xsi:noNamespaceSchemaLocation="http://sumo.dlr.de/xsd/neteditConfiguration.xsd">

    <input>
        <sumo-net-file value="/Volumes/Crucial_X6/projects/marl_data/robust/random_grid_subnetworks/random_subnetwork_5.net.xml"/>
    </input>

    <output>
        <output-file value="/Volumes/Crucial_X6/projects/marl_data/robust/random_grid_subnetworks/random_subnetwork_5.net.xml"/>
    </output>

    <processing>
        <geometry.min-radius.fix.railways value="false"/>
        <geometry.max-grade.fix value="false"/>
        <offset.disable-normalization value="true"/>
        <lefthand value="0"/>
    </processing>

    <junctions>
        <no-turnarounds value="true"/>
        <junctions.corner-detail value="5"/>
        <junctions.limit-turn-speed value="5.50"/>
        <rectangular-lane-cut value="0"/>
    </junctions>

    <pedestrian>
        <walkingareas value="0"/>
    </pedestrian>

</configuration>
-->

<net version="1.20" junctionCornerDetail="5" limitTurnSpeed="5.50" xmlns:xsi="http://www.w3.org/2001/XMLSchema-instance" xsi:noNamespaceSchemaLocation="http://sumo.dlr.de/xsd/net_file.xsd">

    <location netOffset="2000.00,1800.00" convBoundary="0.00,400.00,1800.00,1800.00" origBoundary="-2000.00,-1800.00,800.00,1200.00" projParameter="!"/>

    <edge id=":1084_0" function="internal">
        <lane id=":1084_0_0" index="0" speed="3.65" length="4.67" shape="1598.40,400.00 1599.20,398.80 1600.00,398.40 1600.80,398.80 1601.60,400.00"/>
    </edge>
    <edge id=":1088_0" function="internal">
        <lane id=":1088_0_0" index="0" speed="13.89" length="0.10" shape="400.00,804.80 400.00,804.80"/>
        <lane id=":1088_0_1" index="1" speed="13.89" length="0.10" shape="400.00,801.60 400.00,801.60"/>
    </edge>
    <edge id=":1088_2" function="internal">
        <lane id=":1088_2_0" index="0" speed="13.89" length="0.10" shape="400.00,795.20 400.00,795.20"/>
        <lane id=":1088_2_1" index="1" speed="13.89" length="0.10" shape="400.00,798.40 400.00,798.40"/>
    </edge>
    <edge id=":1103_0" function="internal">
        <lane id=":1103_0_0" index="0" speed="3.65" length="4.67" shape="601.60,1800.00 600.80,1801.20 600.00,1801.60 599.20,1801.20 598.40,1800.00"/>
    </edge>
    <edge id=":1107_0" function="internal">
        <lane id=":1107_0_0" index="0" speed="8.96" length="18.06" shape="395.20,1406.40 395.90,1401.50 398.00,1398.00 401.50,1395.90 406.40,1395.20"/>
        <lane id=":1107_0_1" index="1" speed="7.66" length="12.90" shape="398.40,1406.40 398.90,1402.90 400.40,1400.40 402.90,1398.90 406.40,1398.40"/>
    </edge>
    <edge id=":1107_2" function="internal">
        <lane id=":1107_2_0" index="0" speed="3.90" length="2.58" shape="406.40,1404.80 405.70,1404.90 405.20,1405.20 404.90,1405.70 404.80,1406.40"/>
        <lane id=":1107_2_1" index="1" speed="6.08" length="7.74" shape="406.40,1401.60 404.30,1401.90 402.80,1402.80 401.90,1404.30 401.60,1406.40"/>
    </edge>
    <edge id=":1567_0" function="internal">
        <lane id=":1567_0_0" index="0" speed="3.65" length="4.67" shape="0.00,801.60 -1.20,800.80 -1.60,800.00 -1.20,799.20 0.00,798.40"/>
    </edge>
    <edge id=":1676_0" function="internal">
        <lane id=":1676_0_0" index="0" speed="3.65" length="4.67" shape="401.60,1600.00 400.80,1601.20 400.00,1601.60 399.20,1601.20 398.40,1600.00"/>
    </edge>
    <edge id=":1689_0" function="internal">
        <lane id=":1689_0_0" index="0" speed="3.65" length="4.67" shape="1200.00,601.60 1198.80,600.80 1198.40,600.00 1198.80,599.20 1200.00,598.40"/>
    </edge>
    <edge id=":274_0" function="internal">
        <lane id=":274_0_0" index="0" speed="6.51" length="9.03" shape="1795.20,1010.40 1794.85,1007.95 1793.80,1006.20 1792.05,1005.15 1789.60,1004.80"/>
    </edge>
    <edge id=":274_1" function="internal">
        <lane id=":274_1_0" index="0" speed="13.89" length="20.80" shape="1795.20,1010.40 1795.20,989.60"/>
        <lane id=":274_1_1" index="1" speed="13.89" length="20.80" shape="1798.40,1010.40 1798.40,989.60"/>
    </edge>
    <edge id=":274_3" function="internal">
        <lane id=":274_3_0" index="0" speed="3.65" length="1.44" shape="1798.40,1010.40 1799.20,1009.20"/>
    </edge>
    <edge id=":274_12" function="internal">
        <lane id=":274_12_0" index="0" speed="3.65" length="3.23" shape="1799.20,1009.20 1800.00,1008.80 1800.80,1009.20 1801.60,1010.40"/>
    </edge>
    <edge id=":274_4" function="internal">
        <lane id=":274_4_0" index="0" speed="13.89" length="20.80" shape="1804.80,989.60 1804.80,1010.40"/>
        <lane id=":274_4_1" index="1" speed="13.89" length="20.80" shape="1801.60,989.60 1801.60,1010.40"/>
    </edge>
    <edge id=":274_6" function="internal">
        <lane id=":274_6_0" index="0" speed="9.26" length="5.01" shape="1801.60,989.60 1800.89,994.56"/>
    </edge>
    <edge id=":274_7" function="internal">
        <lane id=":274_7_0" index="0" speed="3.65" length="1.44" shape="1801.60,989.60 1800.80,990.80"/>
    </edge>
    <edge id=":274_13" function="internal">
        <lane id=":274_13_0" index="0" speed="9.26" length="14.34" shape="1800.89,994.56 1800.85,994.85 1798.60,998.60 1794.85,1000.85 1789.60,1001.60"/>
    </edge>
    <edge id=":274_14" function="internal">
        <lane id=":274_14_0" index="0" speed="3.65" length="3.23" shape="1800.80,990.80 1800.00,991.20 1799.20,990.80 1798.40,989.60"/>
    </edge>
    <edge id=":274_8" function="internal">
        <lane id=":274_8_0" index="0" speed="6.51" length="9.03" shape="1789.60,995.20 1792.05,994.85 1793.80,993.80 1794.85,992.05 1795.20,989.60"/>
        <lane id=":274_8_1" index="1" speed="8.00" length="14.19" shape="1789.60,998.40 1793.45,997.85 1796.20,996.20 1797.85,993.45 1798.40,989.60"/>
    </edge>
    <edge id=":274_10" function="internal">
        <lane id=":274_10_0" index="0" speed="9.26" length="19.35" shape="1789.60,998.40 1794.85,999.15 1798.60,1001.40 1800.85,1005.15 1801.60,1010.40"/>
    </edge>
    <edge id=":274_11" function="internal">
        <lane id=":274_11_0" index="0" speed="3.65" length="2.34" shape="1789.60,998.40 1790.80,999.20 1791.20,1000.00"/>
    </edge>
    <edge id=":274_15" function="internal">
        <lane id=":274_15_0" index="0" speed="3.65" length="2.34" shape="1791.20,1000.00 1790.80,1000.80 1789.60,1001.60"/>
    </edge>
    <edge id=":329_0" function="internal">
        <lane id=":329_0_0" index="0" speed="6.51" length="9.03" shape="1795.20,610.40 1794.85,607.95 1793.80,606.20 1792.05,605.15 1789.60,604.80"/>
    </edge>
    <edge id=":329_1" function="internal">
        <lane id=":329_1_0" index="0" speed="13.89" length="20.80" shape="1795.20,610.40 1795.20,589.60"/>
        <lane id=":329_1_1" index="1" speed="13.89" length="20.80" shape="1798.40,610.40 1798.40,589.60"/>
    </edge>
    <edge id=":329_3" function="internal">
        <lane id=":329_3_0" index="0" speed="3.65" length="1.44" shape="1798.40,610.40 1799.20,609.20"/>
    </edge>
    <edge id=":329_12" function="internal">
        <lane id=":329_12_0" index="0" speed="3.65" length="3.23" shape="1799.20,609.20 1800.00,608.80 1800.80,609.20 1801.60,610.40"/>
    </edge>
    <edge id=":329_4" function="internal">
        <lane id=":329_4_0" index="0" speed="13.89" length="20.80" shape="1804.80,589.60 1804.80,610.40"/>
        <lane id=":329_4_1" index="1" speed="13.89" length="20.80" shape="1801.60,589.60 1801.60,610.40"/>
    </edge>
    <edge id=":329_6" function="internal">
        <lane id=":329_6_0" index="0" speed="9.26" length="5.01" shape="1801.60,589.60 1800.89,594.56"/>
    </edge>
    <edge id=":329_7" function="internal">
        <lane id=":329_7_0" index="0" speed="3.65" length="1.44" shape="1801.60,589.60 1800.80,590.80"/>
    </edge>
    <edge id=":329_13" function="internal">
        <lane id=":329_13_0" index="0" speed="9.26" length="14.34" shape="1800.89,594.56 1800.85,594.85 1798.60,598.60 1794.85,600.85 1789.60,601.60"/>
    </edge>
    <edge id=":329_14" function="internal">
        <lane id=":329_14_0" index="0" speed="3.65" length="3.23" shape="1800.80,590.80 1800.00,591.20 1799.20,590.80 1798.40,589.60"/>
    </edge>
    <edge id=":329_8" function="internal">
        <lane id=":329_8_0" index="0" speed="6.51" length="9.03" shape="1789.60,595.20 1792.05,594.85 1793.80,593.80 1794.85,592.05 1795.20,589.60"/>
        <lane id=":329_8_1" index="1" speed="8.00" length="14.19" shape="1789.60,598.40 1793.45,597.85 1796.20,596.20 1797.85,593.45 1798.40,589.60"/>
    </edge>
    <edge id=":329_10" function="internal">
        <lane id=":329_10_0" index="0" speed="9.26" length="19.35" shape="1789.60,598.40 1794.85,599.15 1798.60,601.40 1800.85,605.15 1801.60,610.40"/>
    </edge>
    <edge id=":329_11" function="internal">
        <lane id=":329_11_0" index="0" speed="3.65" length="2.34" shape="1789.60,598.40 1790.80,599.20 1791.20,600.00"/>
    </edge>
    <edge id=":329_15" function="internal">
        <lane id=":329_15_0" index="0" speed="3.65" length="2.34" shape="1791.20,600.00 1790.80,600.80 1789.60,601.60"/>
    </edge>
    <edge id=":337_0" function="internal">
        <lane id=":337_0_0" index="0" speed="6.51" length="9.03" shape="1395.20,1010.40 1394.85,1007.95 1393.80,1006.20 1392.05,1005.15 1389.60,1004.80"/>
    </edge>
    <edge id=":337_1" function="internal">
        <lane id=":337_1_0" index="0" speed="13.89" length="20.80" shape="1395.20,1010.40 1395.20,989.60"/>
        <lane id=":337_1_1" index="1" speed="13.89" length="20.80" shape="1398.40,1010.40 1398.40,989.60"/>
    </edge>
    <edge id=":337_3" function="internal">
        <lane id=":337_3_0" index="0" speed="9.26" length="5.01" shape="1398.40,1010.40 1399.11,1005.44"/>
    </edge>
    <edge id=":337_4" function="internal">
        <lane id=":337_4_0" index="0" speed="3.65" length="1.44" shape="1398.40,1010.40 1399.20,1009.20"/>
    </edge>
    <edge id=":337_20" function="internal">
        <lane id=":337_20_0" index="0" speed="9.26" length="14.34" shape="1399.11,1005.44 1399.15,1005.15 1401.40,1001.40 1405.15,999.15 1410.40,998.40"/>
    </edge>
    <edge id=":337_21" function="internal">
        <lane id=":337_21_0" index="0" speed="3.65" length="3.23" shape="1399.20,1009.20 1400.00,1008.80 1400.80,1009.20 1401.60,1010.40"/>
    </edge>
    <edge id=":337_5" function="internal">
        <lane id=":337_5_0" index="0" speed="6.51" length="9.03" shape="1410.40,1004.80 1407.95,1005.15 1406.20,1006.20 1405.15,1007.95 1404.80,1010.40"/>
    </edge>
    <edge id=":337_6" function="internal">
        <lane id=":337_6_0" index="0" speed="13.89" length="20.80" shape="1410.40,1004.80 1389.60,1004.80"/>
        <lane id=":337_6_1" index="1" speed="13.89" length="20.80" shape="1410.40,1001.60 1389.60,1001.60"/>
    </edge>
    <edge id=":337_8" function="internal">
        <lane id=":337_8_0" index="0" speed="9.26" length="5.01" shape="1410.40,1001.60 1405.44,1000.89"/>
    </edge>
    <edge id=":337_9" function="internal">
        <lane id=":337_9_0" index="0" speed="3.65" length="1.44" shape="1410.40,1001.60 1409.20,1000.80"/>
    </edge>
    <edge id=":337_22" function="internal">
        <lane id=":337_22_0" index="0" speed="9.26" length="14.34" shape="1405.44,1000.89 1405.15,1000.85 1401.40,998.60 1399.15,994.85 1398.40,989.60"/>
    </edge>
    <edge id=":337_23" function="internal">
        <lane id=":337_23_0" index="0" speed="3.65" length="3.23" shape="1409.20,1000.80 1408.80,1000.00 1409.20,999.20 1410.40,998.40"/>
    </edge>
    <edge id=":337_10" function="internal">
        <lane id=":337_10_0" index="0" speed="6.51" length="9.03" shape="1404.80,989.60 1405.15,992.05 1406.20,993.80 1407.95,994.85 1410.40,995.20"/>
    </edge>
    <edge id=":337_11" function="internal">
        <lane id=":337_11_0" index="0" speed="13.89" length="20.80" shape="1404.80,989.60 1404.80,1010.40"/>
        <lane id=":337_11_1" index="1" speed="13.89" length="20.80" shape="1401.60,989.60 1401.60,1010.40"/>
    </edge>
    <edge id=":337_13" function="internal">
        <lane id=":337_13_0" index="0" speed="9.26" length="5.01" shape="1401.60,989.60 1400.89,994.56"/>
    </edge>
    <edge id=":337_14" function="internal">
        <lane id=":337_14_0" index="0" speed="3.65" length="1.44" shape="1401.60,989.60 1400.80,990.80"/>
    </edge>
    <edge id=":337_24" function="internal">
        <lane id=":337_24_0" index="0" speed="9.26" length="14.34" shape="1400.89,994.56 1400.85,994.85 1398.60,998.60 1394.85,1000.85 1389.60,1001.60"/>
    </edge>
    <edge id=":337_25" function="internal">
        <lane id=":337_25_0" index="0" speed="3.65" length="3.23" shape="1400.80,990.80 1400.00,991.20 1399.20,990.80 1398.40,989.60"/>
    </edge>
    <edge id=":337_15" function="internal">
        <lane id=":337_15_0" index="0" speed="6.51" length="9.03" shape="1389.60,995.20 1392.05,994.85 1393.80,993.80 1394.85,992.05 1395.20,989.60"/>
    </edge>
    <edge id=":337_16" function="internal">
        <lane id=":337_16_0" index="0" speed="13.89" length="20.80" shape="1389.60,995.20 1410.40,995.20"/>
        <lane id=":337_16_1" index="1" speed="13.89" length="20.80" shape="1389.60,998.40 1410.40,998.40"/>
    </edge>
    <edge id=":337_18" function="internal">
        <lane id=":337_18_0" index="0" speed="9.26" length="5.01" shape="1389.60,998.40 1394.56,999.11"/>
    </edge>
    <edge id=":337_19" function="internal">
        <lane id=":337_19_0" index="0" speed="3.65" length="1.44" shape="1389.60,998.40 1390.80,999.20"/>
    </edge>
    <edge id=":337_26" function="internal">
        <lane id=":337_26_0" index="0" speed="9.26" length="14.34" shape="1394.56,999.11 1394.85,999.15 1398.60,1001.40 1400.85,1005.15 1401.60,1010.40"/>
    </edge>
    <edge id=":337_27" function="internal">
        <lane id=":337_27_0" index="0" speed="3.65" length="3.23" shape="1390.80,999.20 1391.20,1000.00 1390.80,1000.80 1389.60,1001.60"/>
    </edge>
    <edge id=":42_0" function="internal">
        <lane id=":42_0_0" index="0" speed="3.65" length="4.67" shape="1801.60,1200.00 1800.80,1201.20 1800.00,1201.60 1799.20,1201.20 1798.40,1200.00"/>
    </edge>
    <edge id=":484_0" function="internal">
        <lane id=":484_0_0" index="0" speed="6.51" length="9.03" shape="995.20,1010.40 994.85,1007.95 993.80,1006.20 992.05,1005.15 989.60,1004.80"/>
    </edge>
    <edge id=":484_1" function="internal">
        <lane id=":484_1_0" index="0" speed="13.89" length="20.80" shape="995.20,1010.40 995.20,989.60"/>
        <lane id=":484_1_1" index="1" speed="13.89" length="20.80" shape="998.40,1010.40 998.40,989.60"/>
    </edge>
    <edge id=":484_3" function="internal">
        <lane id=":484_3_0" index="0" speed="9.26" length="5.01" shape="998.40,1010.40 999.11,1005.44"/>
    </edge>
    <edge id=":484_4" function="internal">
        <lane id=":484_4_0" index="0" speed="3.65" length="1.44" shape="998.40,1010.40 999.20,1009.20"/>
    </edge>
    <edge id=":484_20" function="internal">
        <lane id=":484_20_0" index="0" speed="9.26" length="14.34" shape="999.11,1005.44 999.15,1005.15 1001.40,1001.40 1005.15,999.15 1010.40,998.40"/>
    </edge>
    <edge id=":484_21" function="internal">
        <lane id=":484_21_0" index="0" speed="3.65" length="3.23" shape="999.20,1009.20 1000.00,1008.80 1000.80,1009.20 1001.60,1010.40"/>
    </edge>
    <edge id=":484_5" function="internal">
        <lane id=":484_5_0" index="0" speed="6.51" length="9.03" shape="1010.40,1004.80 1007.95,1005.15 1006.20,1006.20 1005.15,1007.95 1004.80,1010.40"/>
    </edge>
    <edge id=":484_6" function="internal">
        <lane id=":484_6_0" index="0" speed="13.89" length="20.80" shape="1010.40,1004.80 989.60,1004.80"/>
        <lane id=":484_6_1" index="1" speed="13.89" length="20.80" shape="1010.40,1001.60 989.60,1001.60"/>
    </edge>
    <edge id=":484_8" function="internal">
        <lane id=":484_8_0" index="0" speed="9.26" length="5.01" shape="1010.40,1001.60 1005.44,1000.89"/>
    </edge>
    <edge id=":484_9" function="internal">
        <lane id=":484_9_0" index="0" speed="3.65" length="1.44" shape="1010.40,1001.60 1009.20,1000.80"/>
    </edge>
    <edge id=":484_22" function="internal">
        <lane id=":484_22_0" index="0" speed="9.26" length="14.34" shape="1005.44,1000.89 1005.15,1000.85 1001.40,998.60 999.15,994.85 998.40,989.60"/>
    </edge>
    <edge id=":484_23" function="internal">
        <lane id=":484_23_0" index="0" speed="3.65" length="3.23" shape="1009.20,1000.80 1008.80,1000.00 1009.20,999.20 1010.40,998.40"/>
    </edge>
    <edge id=":484_10" function="internal">
        <lane id=":484_10_0" index="0" speed="6.51" length="9.03" shape="1004.80,989.60 1005.15,992.05 1006.20,993.80 1007.95,994.85 1010.40,995.20"/>
    </edge>
    <edge id=":484_11" function="internal">
        <lane id=":484_11_0" index="0" speed="13.89" length="20.80" shape="1004.80,989.60 1004.80,1010.40"/>
        <lane id=":484_11_1" index="1" speed="13.89" length="20.80" shape="1001.60,989.60 1001.60,1010.40"/>
    </edge>
    <edge id=":484_13" function="internal">
        <lane id=":484_13_0" index="0" speed="9.26" length="5.01" shape="1001.60,989.60 1000.89,994.56"/>
    </edge>
    <edge id=":484_14" function="internal">
        <lane id=":484_14_0" index="0" speed="3.65" length="1.44" shape="1001.60,989.60 1000.80,990.80"/>
    </edge>
    <edge id=":484_24" function="internal">
        <lane id=":484_24_0" index="0" speed="9.26" length="14.34" shape="1000.89,994.56 1000.85,994.85 998.60,998.60 994.85,1000.85 989.60,1001.60"/>
    </edge>
    <edge id=":484_25" function="internal">
        <lane id=":484_25_0" index="0" speed="3.65" length="3.23" shape="1000.80,990.80 1000.00,991.20 999.20,990.80 998.40,989.60"/>
    </edge>
    <edge id=":484_15" function="internal">
        <lane id=":484_15_0" index="0" speed="6.51" length="9.03" shape="989.60,995.20 992.05,994.85 993.80,993.80 994.85,992.05 995.20,989.60"/>
    </edge>
    <edge id=":484_16" function="internal">
        <lane id=":484_16_0" index="0" speed="13.89" length="20.80" shape="989.60,995.20 1010.40,995.20"/>
        <lane id=":484_16_1" index="1" speed="13.89" length="20.80" shape="989.60,998.40 1010.40,998.40"/>
    </edge>
    <edge id=":484_18" function="internal">
        <lane id=":484_18_0" index="0" speed="9.26" length="5.01" shape="989.60,998.40 994.56,999.11"/>
    </edge>
    <edge id=":484_19" function="internal">
        <lane id=":484_19_0" index="0" speed="3.65" length="1.44" shape="989.60,998.40 990.80,999.20"/>
    </edge>
    <edge id=":484_26" function="internal">
        <lane id=":484_26_0" index="0" speed="9.26" length="14.34" shape="994.56,999.11 994.85,999.15 998.60,1001.40 1000.85,1005.15 1001.60,1010.40"/>
    </edge>
    <edge id=":484_27" function="internal">
        <lane id=":484_27_0" index="0" speed="3.65" length="3.23" shape="990.80,999.20 991.20,1000.00 990.80,1000.80 989.60,1001.60"/>
    </edge>
    <edge id=":530_0" function="internal">
        <lane id=":530_0_0" index="0" speed="3.65" length="4.67" shape="998.40,600.00 999.20,598.80 1000.00,598.40 1000.80,598.80 1001.60,600.00"/>
    </edge>
    <edge id=":532_0" function="internal">
        <lane id=":532_0_0" index="0" speed="13.89" length="20.80" shape="610.40,1004.80 589.60,1004.80"/>
        <lane id=":532_0_1" index="1" speed="13.89" length="20.80" shape="610.40,1001.60 589.60,1001.60"/>
    </edge>
    <edge id=":532_2" function="internal">
        <lane id=":532_2_0" index="0" speed="9.26" length="5.01" shape="610.40,1001.60 605.44,1000.89"/>
    </edge>
    <edge id=":532_3" function="internal">
        <lane id=":532_3_0" index="0" speed="3.65" length="1.44" shape="610.40,1001.60 609.20,1000.80"/>
    </edge>
    <edge id=":532_12" function="internal">
        <lane id=":532_12_0" index="0" speed="9.26" length="14.34" shape="605.44,1000.89 605.15,1000.85 601.40,998.60 599.15,994.85 598.40,989.60"/>
    </edge>
    <edge id=":532_13" function="internal">
        <lane id=":532_13_0" index="0" speed="3.65" length="3.23" shape="609.20,1000.80 608.80,1000.00 609.20,999.20 610.40,998.40"/>
    </edge>
    <edge id=":532_4" function="internal">
        <lane id=":532_4_0" index="0" speed="6.51" length="9.03" shape="604.80,989.60 605.15,992.05 606.20,993.80 607.95,994.85 610.40,995.20"/>
        <lane id=":532_4_1" index="1" speed="8.00" length="14.19" shape="601.60,989.60 602.15,993.45 603.80,996.20 606.55,997.85 610.40,998.40"/>
    </edge>
    <edge id=":532_6" function="internal">
        <lane id=":532_6_0" index="0" speed="9.26" length="19.35" shape="601.60,989.60 600.85,994.85 598.60,998.60 594.85,1000.85 589.60,1001.60"/>
    </edge>
    <edge id=":532_7" function="internal">
        <lane id=":532_7_0" index="0" speed="3.65" length="2.34" shape="601.60,989.60 600.80,990.80 600.00,991.20"/>
    </edge>
    <edge id=":532_14" function="internal">
        <lane id=":532_14_0" index="0" speed="3.65" length="2.34" shape="600.00,991.20 599.20,990.80 598.40,989.60"/>
    </edge>
    <edge id=":532_8" function="internal">
        <lane id=":532_8_0" index="0" speed="6.51" length="9.03" shape="589.60,995.20 592.05,994.85 593.80,993.80 594.85,992.05 595.20,989.60"/>
    </edge>
    <edge id=":532_9" function="internal">
        <lane id=":532_9_0" index="0" speed="13.89" length="20.80" shape="589.60,995.20 610.40,995.20"/>
        <lane id=":532_9_1" index="1" speed="13.89" length="20.80" shape="589.60,998.40 610.40,998.40"/>
    </edge>
    <edge id=":532_11" function="internal">
        <lane id=":532_11_0" index="0" speed="3.65" length="1.44" shape="589.60,998.40 590.80,999.20"/>
    </edge>
    <edge id=":532_15" function="internal">
        <lane id=":532_15_0" index="0" speed="3.65" length="3.23" shape="590.80,999.20 591.20,1000.00 590.80,1000.80 589.60,1001.60"/>
    </edge>
    <edge id=":538_0" function="internal">
        <lane id=":538_0_0" index="0" speed="13.89" length="20.80" shape="1010.40,1404.80 989.60,1404.80"/>
        <lane id=":538_0_1" index="1" speed="13.89" length="20.80" shape="1010.40,1401.60 989.60,1401.60"/>
    </edge>
    <edge id=":538_2" function="internal">
        <lane id=":538_2_0" index="0" speed="9.26" length="5.01" shape="1010.40,1401.60 1005.44,1400.89"/>
    </edge>
    <edge id=":538_3" function="internal">
        <lane id=":538_3_0" index="0" speed="3.65" length="1.44" shape="1010.40,1401.60 1009.20,1400.80"/>
    </edge>
    <edge id=":538_12" function="internal">
        <lane id=":538_12_0" index="0" speed="9.26" length="14.34" shape="1005.44,1400.89 1005.15,1400.85 1001.40,1398.60 999.15,1394.85 998.40,1389.60"/>
    </edge>
    <edge id=":538_13" function="internal">
        <lane id=":538_13_0" index="0" speed="3.65" length="3.23" shape="1009.20,1400.80 1008.80,1400.00 1009.20,1399.20 1010.40,1398.40"/>
    </edge>
    <edge id=":538_4" function="internal">
        <lane id=":538_4_0" index="0" speed="6.51" length="9.03" shape="1004.80,1389.60 1005.15,1392.05 1006.20,1393.80 1007.95,1394.85 1010.40,1395.20"/>
        <lane id=":538_4_1" index="1" speed="8.00" length="14.19" shape="1001.60,1389.60 1002.15,1393.45 1003.80,1396.20 1006.55,1397.85 1010.40,1398.40"/>
    </edge>
    <edge id=":538_6" function="internal">
        <lane id=":538_6_0" index="0" speed="9.26" length="19.35" shape="1001.60,1389.60 1000.85,1394.85 998.60,1398.60 994.85,1400.85 989.60,1401.60"/>
    </edge>
    <edge id=":538_7" function="internal">
        <lane id=":538_7_0" index="0" speed="3.65" length="2.34" shape="1001.60,1389.60 1000.80,1390.80 1000.00,1391.20"/>
    </edge>
    <edge id=":538_14" function="internal">
        <lane id=":538_14_0" index="0" speed="3.65" length="2.34" shape="1000.00,1391.20 999.20,1390.80 998.40,1389.60"/>
    </edge>
    <edge id=":538_8" function="internal">
        <lane id=":538_8_0" index="0" speed="6.51" length="9.03" shape="989.60,1395.20 992.05,1394.85 993.80,1393.80 994.85,1392.05 995.20,1389.60"/>
    </edge>
    <edge id=":538_9" function="internal">
        <lane id=":538_9_0" index="0" speed="13.89" length="20.80" shape="989.60,1395.20 1010.40,1395.20"/>
        <lane id=":538_9_1" index="1" speed="13.89" length="20.80" shape="989.60,1398.40 1010.40,1398.40"/>
    </edge>
    <edge id=":538_11" function="internal">
        <lane id=":538_11_0" index="0" speed="3.65" length="1.44" shape="989.60,1398.40 990.80,1399.20"/>
    </edge>
    <edge id=":538_15" function="internal">
        <lane id=":538_15_0" index="0" speed="3.65" length="3.23" shape="990.80,1399.20 991.20,1400.00 990.80,1400.80 989.60,1401.60"/>
    </edge>
    <edge id=":540_0" function="internal">
        <lane id=":540_0_0" index="0" speed="3.90" length="2.58" shape="1395.20,606.40 1395.10,605.70 1394.80,605.20 1394.30,604.90 1393.60,604.80"/>
        <lane id=":540_0_1" index="1" speed="6.08" length="7.74" shape="1398.40,606.40 1398.10,604.30 1397.20,602.80 1395.70,601.90 1393.60,601.60"/>
    </edge>
    <edge id=":540_2" function="internal">
        <lane id=":540_2_0" index="0" speed="8.96" length="18.06" shape="1393.60,595.20 1398.50,595.90 1402.00,598.00 1404.10,601.50 1404.80,606.40"/>
        <lane id=":540_2_1" index="1" speed="7.66" length="12.90" shape="1393.60,598.40 1397.10,598.90 1399.60,600.40 1401.10,602.90 1401.60,606.40"/>
    </edge>
    <edge id=":818_0" function="internal">
        <lane id=":818_0_0" index="0" speed="3.65" length="4.67" shape="1798.40,400.00 1799.20,398.80 1800.00,398.40 1800.80,398.80 1801.60,400.00"/>
    </edge>
    <edge id=":832_0" function="internal">
        <lane id=":832_0_0" index="0" speed="8.96" length="18.06" shape="1606.40,604.80 1601.50,604.10 1598.00,602.00 1595.90,598.50 1595.20,593.60"/>
        <lane id=":832_0_1" index="1" speed="7.66" length="12.90" shape="1606.40,601.60 1602.90,601.10 1600.40,599.60 1598.90,597.10 1598.40,593.60"/>
    </edge>
    <edge id=":832_2" function="internal">
        <lane id=":832_2_0" index="0" speed="3.90" length="2.58" shape="1604.80,593.60 1604.90,594.30 1605.20,594.80 1605.70,595.10 1606.40,595.20"/>
        <lane id=":832_2_1" index="1" speed="6.08" length="7.74" shape="1601.60,593.60 1601.90,595.70 1602.80,597.20 1604.30,598.10 1606.40,598.40"/>
    </edge>
    <edge id=":936_0" function="internal">
        <lane id=":936_0_0" index="0" speed="3.90" length="2.58" shape="595.20,806.40 595.10,805.70 594.80,805.20 594.30,804.90 593.60,804.80"/>
        <lane id=":936_0_1" index="1" speed="6.08" length="7.74" shape="598.40,806.40 598.10,804.30 597.20,802.80 595.70,801.90 593.60,801.60"/>
    </edge>
    <edge id=":936_2" function="internal">
        <lane id=":936_2_0" index="0" speed="8.96" length="18.06" shape="593.60,795.20 598.50,795.90 602.00,798.00 604.10,801.50 604.80,806.40"/>
        <lane id=":936_2_1" index="1" speed="7.66" length="12.90" shape="593.60,798.40 597.10,798.90 599.60,800.40 601.10,802.90 601.60,806.40"/>
    </edge>
    <edge id=":938_0" function="internal">
        <lane id=":938_0_0" index="0" speed="3.65" length="4.67" shape="200.00,1001.60 198.80,1000.80 198.40,1000.00 198.80,999.20 200.00,998.40"/>
    </edge>
    <edge id=":942_0" function="internal">
        <lane id=":942_0_0" index="0" speed="6.51" length="9.03" shape="1395.20,1410.40 1394.85,1407.95 1393.80,1406.20 1392.05,1405.15 1389.60,1404.80"/>
    </edge>
    <edge id=":942_1" function="internal">
        <lane id=":942_1_0" index="0" speed="13.89" length="20.80" shape="1395.20,1410.40 1395.20,1389.60"/>
        <lane id=":942_1_1" index="1" speed="13.89" length="20.80" shape="1398.40,1410.40 1398.40,1389.60"/>
    </edge>
    <edge id=":942_3" function="internal">
        <lane id=":942_3_0" index="0" speed="3.65" length="1.44" shape="1398.40,1410.40 1399.20,1409.20"/>
    </edge>
    <edge id=":942_12" function="internal">
        <lane id=":942_12_0" index="0" speed="3.65" length="3.23" shape="1399.20,1409.20 1400.00,1408.80 1400.80,1409.20 1401.60,1410.40"/>
    </edge>
    <edge id=":942_4" function="internal">
        <lane id=":942_4_0" index="0" speed="13.89" length="20.80" shape="1404.80,1389.60 1404.80,1410.40"/>
        <lane id=":942_4_1" index="1" speed="13.89" length="20.80" shape="1401.60,1389.60 1401.60,1410.40"/>
    </edge>
    <edge id=":942_6" function="internal">
        <lane id=":942_6_0" index="0" speed="9.26" length="5.01" shape="1401.60,1389.60 1400.89,1394.56"/>
    </edge>
    <edge id=":942_7" function="internal">
        <lane id=":942_7_0" index="0" speed="3.65" length="1.44" shape="1401.60,1389.60 1400.80,1390.80"/>
    </edge>
    <edge id=":942_13" function="internal">
        <lane id=":942_13_0" index="0" speed="9.26" length="14.34" shape="1400.89,1394.56 1400.85,1394.85 1398.60,1398.60 1394.85,1400.85 1389.60,1401.60"/>
    </edge>
    <edge id=":942_14" function="internal">
        <lane id=":942_14_0" index="0" speed="3.65" length="3.23" shape="1400.80,1390.80 1400.00,1391.20 1399.20,1390.80 1398.40,1389.60"/>
    </edge>
    <edge id=":942_8" function="internal">
        <lane id=":942_8_0" index="0" speed="6.51" length="9.03" shape="1389.60,1395.20 1392.05,1394.85 1393.80,1393.80 1394.85,1392.05 1395.20,1389.60"/>
        <lane id=":942_8_1" index="1" speed="8.00" length="14.19" shape="1389.60,1398.40 1393.45,1397.85 1396.20,1396.20 1397.85,1393.45 1398.40,1389.60"/>
    </edge>
    <edge id=":942_10" function="internal">
        <lane id=":942_10_0" index="0" speed="9.26" length="19.35" shape="1389.60,1398.40 1394.85,1399.15 1398.60,1401.40 1400.85,1405.15 1401.60,1410.40"/>
    </edge>
    <edge id=":942_11" function="internal">
        <lane id=":942_11_0" index="0" speed="3.65" length="2.34" shape="1389.60,1398.40 1390.80,1399.20 1391.20,1400.00"/>
    </edge>
    <edge id=":942_15" function="internal">