<?xml version="1.0" encoding="UTF-8"?>

<!-- generated on 2025-03-10 19:36:10.543416 by randomTrips.py v1_19_0+1770-8bb5c24c187
<configuration>
    <net-file value="random_subnetwork_5.net.xml"/>
    <output-trip-file value="random_subnetwork_5_heavy.trips.xml"/>
    <fringe-factor value="100"/>
    <min-distance value="600.0"/>
    <remove-loops value="True"/>
    <validate value="True"/>
    <period value="1.5406434963580289"/>
    <random-depart value="True"/>
    <binomial value="10"/>
</configuration>
-->

<!-- generated on 2025-03-10 19:36:10 by Eclipse SUMO duarouter Version v1_19_0+1770-8bb5c24c187
<configuration xmlns:xsi="http://www.w3.org/2001/XMLSchema-instance" xsi:noNamespaceSchemaLocation="http://sumo.dlr.de/xsd/duarouterConfiguration.xsd">

    <input>
        <net-file value="random_subnetwork_5.net.xml"/>
        <route-files value="random_subnetwork_5_heavy.trips.xml"/>
    </input>

    <output>
        <output-file value="random_subnetwork_5_heavy.trips.xml.tmp"/>
        <alternatives-output value="NUL"/>
        <write-trips value="true"/>
    </output>

    <processing>
        <remove-loops value="true"/>
    </processing>

    <time>
        <begin value="0.0"/>
        <end value="3600.0"/>
    </time>

    <report>
        <no-warnings value="true"/>
        <ignore-errors value="true"/>
        <no-step-log value="true"/>
    </report>

</configuration>
-->

<routes xmlns:xsi="http://www.w3.org/2001/XMLSchema-instance" xsi:noNamespaceSchemaLocation="http://sumo.dlr.de/xsd/routes_file.xsd">
    <trip id="0" depart="0.00" from="-1573" to="1085"/>
    <trip id="1" depart="0.00" from="-1568" to="1573"/>
    <trip id="2" depart="0.00" from="-1568" to="1690"/>
    <trip id="3" depart="1.00" from="-939" to="1690"/>
    <trip id="4" depart="3.00" from="-1568" to="1104"/>
    <trip id="5" depart="5.00" from="-1573" to="1085"/>
    <trip id="6" depart="7.00" from="-1085" to="1568"/>
    <trip id="7" depart="8.00" from="-939" to="1690"/>
    <trip id="8" depart="10.00" from="275" to="819"/>
    <trip id="9" depart="10.00" from="1222" to="939"/>
    <trip id="11" depart="17.00" from="-1677" to="939"/>
    <trip id="12" depart="19.00" from="-531" to="1573"/>
    <trip id="13" depart="23.00" from="1222" to="1104"/>
    <trip id="14" depart="25.00" from="-939" to="1690"/>
    <trip id="15" depart="26.00" from="275" to="1573"/>
    <trip id="16" depart="28.00" from="-939" to="1104"/>
    <trip id="17" depart="30.00" from="-1568" to="1104"/>
    <trip id="18" depart="32.00" from="275" to="1573"/>
    <trip id="19" depart="34.00" from="-1573" to="1568"/>
    <trip id="20" depart="36.00" from="-1568" to="1573"/>
    <trip id="21" depart="37.00" from="-939" to="531"/>
    <trip id="22" depart="38.00" from="-1568" to="819"/>
    <trip id="23" depart="41.00" from="-1677" to="1573"/>
    <trip id="24" depart="42.00" from="-1573" to="531"/>
    <trip id="25" depart="43.00" from="-1573" to="1690"/>
    <trip id="26" depart="44.00" from="-1104" to="1573"/>
    <trip id="27" depart="44.00" from="-1677" to="1085"/>
    <trip id="28" depart="45.00" from="-531" to="949"/>
    <trip id="29" depart="45.00" from="-1104" to="-275"/>
    <trip id="30" depart="47.00" from="-1573" to="1690"/>
    <trip id="31" depart="51.00" from="1222" to="-338"/>
    <trip id="32" depart="52.00" from="-939" to="1573"/>
    <trip id="33" depart="55.00" from="275" to="1677"/>
    <trip id="34" depart="56.00" from="275" to="1573"/>
    <trip id="35" depart="57.00" from="-1573" to="939"/>
    <trip id="36" depart="59.00" from="-1690" to="1677"/>
    <trip id="37" depart="62.00" from="-1568" to="-1222"/>
    <trip id="38" depart="63.00" from="-939" to="1573"/>
    <trip id="39" depart="71.00" from="-939" to="1690"/>
    <trip id="40" depart="72.00" from="-1690" to="1677"/>
    <trip id="41" depart="74.00" from="-1085" to="1677"/>
    <trip id="42" depart="76.00" from="-939" to="1104"/>
    <trip id="43" depart="77.00" from="-939" to="819"/>
    <trip id="44" depart="80.00" from="-531" to="1573"/>
    <trip id="46" depart="85.00" from="1222" to="1677"/>
    <trip id="47" depart="85.00" from="1222" to="937"/>
    <trip id="48" depart="87.00" from="-1677" to="1568"/>
    <trip id="49" depart="89.00" from="-939" to="1085"/>
    <trip id="50" depart="90.00" from="-1104" to="1085"/>
    <trip id="51" depart="90.00" from="-1085" to="531"/>
    <trip id="52" depart="91.00" from="-939" to="1573"/>
    <trip id="53" depart="92.00" from="-939" to="819"/>
    <trip id="54" depart="92.00" from="-1690" to="1568"/>
    <trip id="55" depart="99.00" from="275" to="819"/>
    <trip id="56" depart="99.00" from="1222" to="1677"/>
    <trip id="57" depart="100.00" from="-939" to="1085"/>
    <trip id="58" depart="101.00" from="-819" to="1573"/>
    <trip id="59" depart="102.00" from="-1085" to="1104"/>
    <trip id="60" depart="102.00" from="-939" to="-275"/>
    <trip id="61" depart="103.00" from="-1085" to="939"/>
    <trip id="62" depart="104.00" from="-1573" to="531"/>
    <trip id="63" depart="108.00" from="-1690" to="1104"/>
    <trip id="64" depart="108.00" from="1222" to="819"/>
    <trip id="65" depart="110.00" from="-1104" to="819"/>
    <trip id="66" depart="116.00" from="-1573" to="531"/>
    <trip id="67" depart="120.00" from="-1085" to="1573"/>
    <trip id="68" depart="121.00" from="275" to="819"/>
    <trip id="69" depart="122.00" from="1222" to="1677"/>
    <trip id="70" depart="122.00" from="-1677" to="531"/>
    <trip id="71" depart="123.00" from="-1104" to="1568"/>
    <trip id="72" depart="125.00" from="-939" to="1104"/>
    <trip id="73" depart="125.00" from="-1104" to="531"/>
    <trip id="74" depart="126.00" from="-1568" to="-1222"/>
    <trip id="75" depart="129.00" from="1222" to="1104"/>
    <trip id="76" depart="131.00" from="-1085" to="531"/>
    <trip id="77" depart="136.00" from="-531" to="1104"/>
    <trip id="78" depart="138.00" from="-1104" to="-275"/>
    <trip id="79" depart="141.00" from="-819" to="1573"/>
    <trip id="80" depart="141.00" from="-1677" to="1573"/>
    <trip id="81" depart="144.00" from="275" to="1573"/>
    <trip id="82" depart="145.00" from="-1690" to="819"/>
    <trip id="83" depart="148.00" from="-1690" to="1568"/>
    <trip id="84" depart="150.00" from="-1690" to="939"/>
    <trip id="85" depart="151.00" from="-1085" to="1104"/>
    <trip id="86" depart="152.00" from="-1104" to="1085"/>
    <trip id="87" depart="157.00" from="-1677" to="1690"/>
    <trip id="88" depart="158.00" from="-531" to="939"/>
    <trip id="89" depart="160.00" from="-531" to="-275"/>
    <trip id="90" depart="164.00" from="-819" to="1690"/>
    <trip id="91" depart="164.00" from="-1677" to="1573"/>
    <trip id="92" depart="167.00" from="-531" to="1573"/>
    <trip id="93" depart="168.00" from="1222" to="531"/>
    <trip id="94" depart="168.00" from="533" to="939"/>
    <trip id="95" depart="169.00" from="-1677" to="531"/>
    <trip id="96" depart="171.00" from="-1085" to="1104"/>
    <trip id="97" depart="172.00" from="-1568" to="-275"/>
    <trip id="98" depart="172.00" from="-1085" to="531"/>
    <trip id="99" depart="173.00" from="-1690" to="1104"/>
    <trip id="100" depart="174.00" from="275" to="819"/>
    <trip id="101" depart="178.00" from="275" to="939"/>
    <trip id="102" depart="183.00" from="275" to="1690"/>
    <trip id="103" depart="184.00" from="-1690" to="1568"/>
    <trip id="104" depart="185.00" from="-531" to="-1222"/>
    <trip id="106" depart="187.00" from="-1085" to="-275"/>
    <trip id="107" depart="188.00" from="-1568" to="819"/>
    <trip id="108" depart="188.00" from="-1085" to="939"/>
    <trip id="109" depart="189.00" from="275" to="1104"/>
    <trip id="110" depart="191.00" from="-1677" to="819"/>
    <trip id="111" depart="191.00" from="-1573" to="939"/>
    <trip id="112" depart="193.00" from="-1573" to="1104"/>
    <trip id="113" depart="194.00" from="-1573" to="-275"/>
    <trip id="114" depart="195.00" from="-1677" to="1568"/>
    <trip id="115" depart="203.00" from="275" to="1690"/>
    <trip id="116" depart="203.00" from="-1568" to="1573"/>
    <trip id="117" depart="204.00" from="-1104" to="1568"/>
    <trip id="118" depart="207.00" from="-531" to="1085"/>
    <trip id="119" depart="208.00" from="-1104" to="819"/>
    <trip id="120" depart="212.00" from="-1677" to="-1222"/>
    <trip id="121" depart="213.00" from="-939" to="1104"/>
    <trip id="122" depart="214.00" from="-937" to="1573"/>
    <trip id="123" depart="217.00" from="-1573" to="1104"/>
    <trip id="124" depart="220.00" from="-939" to="531"/>
    <trip id="125" depart="221.00" from="-1677" to="1085"/>
    <trip id="126" depart="222.00" from="-1104" to="531"/>
    <trip id="127" depart="222.00" from="275" to="1085"/>
    <trip id="128" depart="224.00" from="-1690" to="-275"/>
    <trip id="129" depart="224.00" from="-819" to="533"/>
    <trip id="130" depart="226.00" from="-819" to="1568"/>
    <trip id="131" depart="229.00" from="1222" to="939"/>
    <trip id="132" depart="230.00" from="-1085" to="-1222"/>
    <trip id="133" depart="233.00" from="-1085" to="1568"/>
    <trip id="134" depart="235.00" from="-939" to="1085"/>
    <trip id="135" depart="235.00" from="-819" to="1677"/>
    <trip id="136" depart="236.00" from="1222" to="1085"/>
    <trip id="137" depart="239.00" from="-1568" to="1677"/>
    <trip id="138" depart="240.00" from="-1677" to="1085"/>
    <trip id="139" depart="241.00" from="-939" to="-275"/>
    <trip id="141" depart="245.00" from="1222" to="1104"/>
    <trip id="142" depart="246.00" from="-1677" to="1568"/>
    <trip id="143" depart="247.00" from="1222" to="939"/>
    <trip id="144" depart="248.00" from="-1677" to="-275"/>
    <trip id="145" depart="248.00" from="-1690" to="-275"/>
    <trip id="146" depart="248.00" from="-819" to="-275"/>
    <trip id="147" depart="249.00" from="-531" to="1085"/>
    <trip id="148" depart="249.00" from="-1573" to="-275"/>
    <trip id="151" depart="253.00" from="-819" to="939"/>
    <trip id="152" depart="255.00" from="275" to="1085"/>
    <trip id="153" depart="255.00" from="-531" to="939"/>
    <trip id="154" depart="258.00" from="-531" to="939"/>
    <trip id="155" depart="261.00" from="-1677" to="531"/>
    <trip id="156" depart="263.00" from="-1104" to="1085"/>
    <trip id="157" depart="264.00" from="-531" to="819"/>
    <trip id="158" depart="265.00" from="-1573" to="1568"/>
    <trip id="159" depart="266.00" from="-939" to="1690"/>
    <trip id="160" depart="273.00" from="-1573" to="-275"/>
    <trip id="161" depart="273.00" from="1222" to="1104"/>
    <trip id="162" depart="273.00" from="1222" to="1104"/>
    <trip id="163" depart="276.00" from="-1568" to="819"/>
    <trip id="164" depart="277.00" from="-1104" to="819"/>
    <trip id="165" depart="279.00" from="-939" to="531"/>
    <trip id="166" depart="279.00" from="275" to="1690"/>
    <trip id="167" depart="279.00" from="-1568" to="531"/>
    <trip id="168" depart="281.00" from="275" to="1690"/>
    <trip id="169" depart="283.00" from="-819" to="1677"/>
    <trip id="170" depart="287.00" from="-531" to="819"/>
    <trip id="171" depart="288.00" from="-1573" to="531"/>
    <trip id="172" depart="289.00" from="-1085" to="1104"/>
    <trip id="173" depart="293.00" from="1222" to="1085"/>
    <trip id="174" depart="293.00" from="-819" to="-1222"/>
    <trip id="175" depart="296.00" from="275" to="1104"/>
    <trip id="176" depart="296.00" from="1222" to="1690"/>
    <trip id="177" depart="297.00" from="-1573" to="531"/>
    <trip id="178" depart="298.00" from="1222" to="1690"/>
    <trip id="179" depart="300.00" from="-939" to="1690"/>
    <trip id="180" depart="300.00" from="-1677" to="-1222"/>
    <trip id="181" depart="302.00" from="-819" to="-275"/>
    <trip id="182" depart="303.00" from="-1568" to="1690"/>
    <trip id="183" depart="304.00" from="-1102" to="1677"/>
    <trip id="184" depart="305.00" from="-531" to="1677"/>
    <trip id="185" depart="307.00" from="-1104" to="-275"/>
    <trip id="186" depart="309.00" from="275" to="819"/>
    <trip id="187" depart="314.00" from="-1104" to="1690"/>
    <trip id="188" depart="315.00" from="1222" to="531"/>
    <trip id="189" depart="317.00" from="-1568" to="1677"/>
    <trip id="190" depart="320.00" from="275" to="1677"/>
    <trip id="191" depart="322.00" from="-819" to="1568"/>
    <trip id="192" depart="324.00" from="1222" to="1085"/>
    <trip id="193" depart="324.00" from="-939" to="819"/>
    <trip id="194" depart="326.00" from="-939" to="1677"/>
    <trip id="195" depart="326.00" from="-819" to="1573"/>
    <trip id="196" depart="330.00" from="-531" to="1573"/>
    <trip id="197" depart="334.00" from="-1568" to="1085"/>
    <trip id="198" depart="336.00" from="-1690" to="-1222"/>
    <trip id="199" depart="339.00" from="-1677" to="-1222"/>
    <trip id="200" depart="340.00" from="275" to="1104"/>
    <trip id="201" depart="344.00" from="-1085" to="1677"/>
    <trip id="202" depart="344.00" from="-531" to="-1222"/>
    <trip id="203" depart="345.00" from="-937" to="1690"/>
    <trip id="204" depart="348.00" from="-939" to="1573"/>
    <trip id="205" depart="349.00" from="-939" to="531"/>
    <trip id="206" depart="351.00" from="-819" to="1690"/>
    <trip id="207" depart="354.00" from="275" to="1568"/>
    <trip id="208" depart="354.00" from="-1568" to="-1222"/>
    <trip id="209" depart="354.00" from="-1677" to="939"/>
    <trip id="210" depart="356.00" from="-531" to="1573"/>
    <trip id="211" depart="356.00" from="-1568" to="-1089"/>
    <trip id="212" depart="360.00" from="-1104" to="-1222"/>
    <trip id="213" depart="361.00" from="1222" to="1085"/>
    <trip id="214" depart="364.00" from="-1690" to="1677"/>
    <trip id="215" depart="365.00" from="-939" to="1573"/>
    <trip id="216" depart="366.00" from="-1568" to="1677"/>
    <trip id="218" depart="371.00" from="-1104" to="819"/>
    <trip id="219" depart="374.00" from="-939" to="1690"/>
    <trip id="220" depart="375.00" from="1222" to="1677"/>
    <trip id="221" depart="375.00" from="-1677" to="531"/>
    <trip id="222" depart="376.00" from="275" to="1573"/>
    <trip id="223" depart="378.00" from="1222" to="819"/>
    <trip id="224" depart="379.00" from="275" to="939"/>
    <trip id="225" depart="379.00" from="-1568" to="-1222"/>
    <trip id="226" depart="382.00" from="-1085" to="1573"/>
    <trip id="227" depart="383.00" from="-939" to="-1222"/>
    <trip id="228" depart="385.00" from="-1690" to="939"/>
    <trip id="229" depart="385.00" from="275" to="1573"/>
    <trip id="230" depart="387.00" from="-1085" to="531"/>
    <trip id="231" depart="388.00" from="-819" to="1690"/>
    <trip id="232" depart="391.00" from="-819" to="1568"/>
    <trip id="233" depart="391.00" from="1222" to="531"/>
    <trip id="234" depart="395.00" from="-531" to="939"/>
    <trip id="235" depart="395.00" from="-1085" to="1104"/>
    <trip id="236" depart="400.00" from="1222" to="1690"/>
    <trip id="237" depart="401.00" from="-1573" to="-275"/>
    <trip id="238" depart="403.00" from="-939" to="1104"/>
    <trip id="239" depart="404.00" from="-531" to="-275"/>
    <trip id="240" depart="404.00" from="-1573" to="1568"/>
    <trip id="241" depart="405.00" from="-1677" to="-1222"/>
    <trip id="242" depart="407.00" from="-1573" to="939"/>
    <trip id="243" depart="407.00" from="1222" to="1085"/>
    <trip id="244" depart="408.00" from="275" to="939"/>
    <trip id="245" depart="408.00" from="-819" to="-275"/>
    <trip id="246" depart="408.00" from="-1568" to="1573"/>
    <trip id="247" depart="409.00" from="-1085" to="-275"/>
    <trip id="248" depart="410.00" from="-819" to="-1222"/>
    <trip id="249" depart="410.00" from="1222" to="1690"/>
    <trip id="250" depart="411.00" from="-1568" to="1573"/>
    <trip id="251" depart="413.00" from="-531" to="1102"/>
    <trip id="252" depart="420.00" from="-939" to="-1222"/>
    <trip id="253" depart="421.00" from="-1573" to="1677"/>
    <trip id="255" depart="423.00" from="-1573" to="1568"/>
    <trip id="256" depart="423.00" from="-1690" to="-275"/>
    <trip id="257" depart="428.00" from="1222" to="1085"/>
    <trip id="258" depart="430.00" from="-1104" to="1690"/>
    <trip id="259" depart="430.00" from="1222" to="1690"/>
    <trip id="260" depart="430.00" from="-1677" to="-275"/>
    <trip id="261" depart="435.00" from="-1085" to="1677"/>
    <trip id="262" depart="436.00" from="-1568" to="1104"/>
    <trip id="263" depart="436.00" from="-819" to="1104"/>
    <trip id="264" depart="437.00" from="-1573" to="1690"/>
    <trip id="265" depart="439.00" from="275" to="1677"/>
    <trip id="266" depart="440.00" from="-1677" to="1573"/>
    <trip id="267" depart="441.00" from="-1690" to="1573"/>
    <trip id="268" depart="443.00" from="275" to="1690"/>
    <trip id="269" depart="443.00" from="-1573" to="1677"/>
    <trip id="270" depart="444.00" from="-531" to="1573"/>
    <trip id="271" depart="446.00" from="-1677" to="-275"/>
    <trip id="272" depart="449.00" from="-1690" to="1104"/>
    <trip id="273" depart="454.00" from="-1104" to="-275"/>
    <trip id="274" depart="455.00" from="275" to="1568"/>
    <trip id="275" depart="456.00" from="-1677" to="819"/>
    <trip id="276" depart="458.00" from="-939" to="1573"/>
    <trip id="277" depart="463.00" from="-1573" to="531"/>
    <trip id="278" depart="463.00" from="275" to="531"/>
    <trip id="279" depart="464.00" from="-1690" to="-275"/>
    <trip id="280" depart="464.00" from="275" to="531"/>
    <trip id="281" depart="465.00" from="-1104" to="-275"/>
    <trip id="282" depart="469.00" from="275" to="1568"/>
    <trip id="283" depart="469.00" from="275" to="1690"/>
    <trip id="284" depart="471.00" from="-1104" to="-275"/>
    <trip id="285" depart="472.00" from="-1104" to="939"/>
    <trip id="286" depart="475.00" from="275" to="1085"/>
    <trip id="287" depart="478.00" from="275" to="539"/>
    <trip id="288" depart="480.00" from="-1677" to="1085"/>
    <trip id="289" depart="481.00" from="-531" to="1104"/>
    <trip id="290" depart="482.00" from="-1085" to="531"/>
    <trip id="291" depart="482.00" from="-1104" to="531"/>
    <trip id="292" depart="483.00" from="-1104" to="1690"/>
    <trip id="293" depart="483.00" from="-819" to="-275"/>
    <trip id="294" depart="483.00" from="-1573" to="531"/>
    <trip id="295" depart="486.00" from="-1104" to="819"/>
    <trip id="296" depart="486.00" from="-1690" to="-1222"/>
    <trip id="297" depart="488.00" from="-1108" to="1573"/>
    <trip id="298" depart="488.00" from="-1568" to="-275"/>
    <trip id="299" depart="490.00" from="-819" to="1104"/>
    <trip id="300" depart="491.00" from="-1104" to="531"/>
    <trip id="301" depart="494.00" from="-1104" to="819"/>
    <trip id="302" depart="496.00" from="-1085" to="1573"/>
    <trip id="303" depart="497.00" from="-819" to="-1222"/>
    <trip id="304" depart="498.00" from="1222" to="1568"/>
    <trip id="305" depart="499.00" from="-1677" to="1085"/>
    <trip id="306" depart="499.00" from="275" to="1690"/>
    <trip id="307" depart="502.00" from="-1690" to="-275"/>
    <trip id="308" depart="505.00" from="1222" to="1085"/>
    <trip id="309" depart="507.00" from="-1573" to="1568"/>
    <trip id="310" depart="508.00" from="-1573" to="-275"/>
    <trip id="311" depart="509.00" from="-1573" to="1104"/>
    <trip id="312" depart="510.00" from="-1573" to="1690"/>
    <trip id="313" depart="512.00" from="-819" to="1677"/>
    <trip id="314" depart="512.00" from="-531" to="1568"/>
    <trip id="315" depart="517.00" from="1222" to="819"/>
    <trip id="316" depart="517.00" from="275" to="819"/>
    <trip id="317" depart="520.00" from="-1573" to="819"/>
    <trip id="318" depart="522.00" from="-1690" to="1568"/>
    <trip id="319" depart="525.00" from="1222" to="1085"/>
    <trip id="320" depart="526.00" from="-1104" to="531"/>
    <trip id="321" depart="527.00" from="-1104" to="1085"/>
    <trip id="322" depart="529.00" from="-1568" to="1085"/>
    <trip id="323" depart="531.00" from="-1573" to="-275"/>
    <trip id="324" depart="534.00" from="275" to="1104"/>
    <trip id="325" depart="537.00" from="275" to="1568"/>
    <trip id="326" depart="538.00" from="-1677" to="939"/>
    <trip id="327" depart="539.00" from="-531" to="819"/>
    <trip id="328" depart="541.00" from="-1573" to="531"/>
    <trip id="329" depart="541.00" from="1222" to="1104"/>
    <trip id="330" depart="542.00" from="1222" to="1677"/>
    <trip id="332" depart="547.00" from="-531" to="1085"/>
    <trip id="333" depart="549.00" from="1222" to="1690"/>
    <trip id="334" depart="550.00" from="-1104" to="-275"/>
    <trip id="335" depart="551.00" from="-531" to="819"/>
    <trip id="336" depart="556.00" from="275" to="1677"/>
    <trip id="337" depart="559.00" from="1222" to="819"/>
    <trip id="338" depart="560.00" from="-819" to="531"/>
    <trip id="339" depart="567.00" from="-819" to="1690"/>
    <trip id="340" depart="568.00" from="-1573" to="1085"/>
    <trip id="341" depart="569.00" from="-1568" to="1677"/>
    <trip id="342" depart="570.00" from="-1104" to="819"/>
    <trip id="343" depart="572.00" from="-1104" to="1085"/>
    <trip id="344" depart="572.00" from="-1568" to="1690"/>
    <trip id="345" depart="573.00" from="-1573" to="1690"/>
    <trip id="346" depart="575.00" from="-819" to="1690"/>
    <trip id="347" depart="576.00" from="275" to="1690"/>
    <trip id="348" depart="577.00" from="-819" to="1104"/>
    <trip id="349" depart="577.00" from="-1085" to="939"/>
    <trip id="350" depart="580.00" from="-1568" to="1690"/>
    <trip id="351" depart="582.00" from="-1085" to="-1222"/>
    <trip id="352" depart="585.00" from="-1104" to="-275"/>
    <trip id="353" depart="587.00" from="-1104" to="-1222"/>
    <trip id="354" depart="588.00" from="-1104" to="-275"/>
    <trip id="355" depart="589.00" from="-1085" to="1677"/>
    <trip id="356" depart="591.00" from="1222" to="1568"/>
    <trip id="357" depart="591.00" from="-1573" to="1085"/>
    <trip id="358" depart="594.00" from="-1573" to="-275"/>
    <trip id="359" depart="595.00" from="-1085" to="1568"/>
    <trip id="360" depart="595.00" from="1222" to="1085"/>
    <trip id="361" depart="597.00" from="1222" to="939"/>
    <trip id="362" depart="600.00" from="-1104" to="-1222"/>
    <trip id="363" depart="601.00" from="-939" to="1690"/>
    <trip id="364" depart="601.00" from="-819" to="1690"/>
    <trip id="365" depart="602.00" from="275" to="1690"/>
    <trip id="366" depart="604.00" from="-1573" to="1690"/>
    <trip id="367" depart="605.00" from="-939" to="1677"/>
    <trip id="368" depart="605.00" from="-819" to="-275"/>
    <trip id="369" depart="608.00" from="-1690" to="1677"/>
    <trip id="370" depart="611.00" from="-1104" to="1568"/>
    <trip id="371" depart="611.00" from="1222" to="819"/>
    <trip id="373" depart="616.00" from="-939" to="1085"/>
    <trip id="374" depart="617.00" from="-1677" to="1568"/>
    <trip id="375" depart="619.00" from="-1085" to="1568"/>
    <trip id="376" depart="620.00" from="-1690" to="1568"/>
    <trip id="377" depart="622.00" from="-1690" to="819"/>
    <trip id="378" depart="623.00" from="275" to="1573"/>
    <trip id="379" depart="623.00" from="-939" to="1677"/>
    <trip id="380" depart="626.00" from="-819" to="1690"/>
    <trip id="381" depart="626.00" from="-1690" to="819"/>
    <trip id="382" depart="627.00" from="1222" to="1690"/>
    <trip id="383" depart="628.00" from="-1690" to="939"/>
    <trip id="384" depart="628.00" from="-1573" to="939"/>
    <trip id="385" depart="632.00" from="275" to="1568"/>
    <trip id="386" depart="633.00" from="-1568" to="-1222"/>
    <trip id="387" depart="634.00" from="-1677" to="-1222"/>
    <trip id="388" depart="635.00" from="-1573" to="531"/>
    <trip id="389" depart="636.00" from="-1085" to="1104"/>
    <trip id="390" depart="638.00" from="-1677" to="531"/>
    <trip id="391" depart="640.00" from="-1573" to="1568"/>
    <trip id="392" depart="641.00" from="-1085" to="1573"/>
    <trip id="393" depart="643.00" from="-1568" to="-1222"/>
    <trip id="394" depart="644.00" from="-1568" to="1677"/>
    <trip id="395" depart="645.00" from="-1104" to="819"/>
    <trip id="396" depart="645.00" from="1222" to="939"/>
    <trip id="397" depart="645.00" from="-819" to="1568"/>
    <trip id="399" depart="648.00" from="-939" to="819"/>
    <trip id="400" depart="649.00" from="-819" to="1573"/>
    <trip id="401" depart="650.00" from="-1568" to="1085"/>
    <trip id="402" depart="653.00" from="-1568" to="1085"/>
    <trip id="403" depart="654.00" from="-1573" to="819"/>
    <trip id="405" depart="658.00" from="-1104" to="939"/>
    <trip id="406" depart="660.00" from="-819" to="1573"/>
    <trip id="407" depart="661.00" from="-1690" to="-275"/>
    <trip id="408" depart="663.00" from="-1104" to="-1222"/>
    <trip id="409" depart="669.00" from="-1104" to="939"/>
    <trip id="410" depart="670.00" from="-1690" to="1568"/>
    <trip id="411" depart="670.00" from="1092" to="1690"/>
    <trip id="412" depart="671.00" from="-1085" to="531"/>
    <trip id="413" depart="678.00" from="-1104" to="1085"/>
    <trip id="414" depart="679.00" from="275" to="1677"/>
    <trip id="415" depart="680.00" from="1222" to="1104"/>
    <trip id="416" depart="681.00" from="-1568" to="1677"/>
    <trip id="417" depart="684.00" from="-1677" to="819"/>
    <trip id="418" depart="685.00" from="-1690" to="330"/>
    <trip id="419" depart="686.00" from="275" to="1568"/>
    <trip id="420" depart="688.00" from="-819" to="1690"/>
    <trip id="421" depart="689.00" from="-939" to="1690"/>
    <trip id="422" depart="692.00" from="-939" to="-275"/>
    <trip id="423" depart="693.00" from="-1568" to="531"/>
    <trip id="424" depart="694.00" from="-939" to="-1222"/>
    <trip id="425" depart="695.00" from="-531" to="939"/>
    <trip id="426" depart="696.00" from="-1573" to="1104"/>
    <trip id="427" depart="698.00" from="-1677" to="-1222"/>
    <trip id="428" depart="706.00" from="-1085" to="1573"/>
    <trip id="429" depart="710.00" from="-1690" to="1568"/>
    <trip id="430" depart="713.00" from="-939" to="1677"/>
    <trip id="431" depart="714.00" from="275" to="1690"/>
    <trip id="432" depart="715.00" from="-1568" to="1573"/>
    <trip id="433" depart="717.00" from="-531" to="1677"/>
    <trip id="434" depart="718.00" from="275" to="531"/>
    <trip id="435" depart="718.00" from="-531" to="1573"/>
    <trip id="436" depart="720.00" from="275" to="1573"/>
    <trip id="437" depart="721.00" from="-1573" to="939"/>
    <trip id="438" depart="725.00" from="-531" to="-1222"/>
    <trip id="439" depart="727.00" from="-1677" to="939"/>
    <trip id="440" depart="729.00" from="-1690" to="-275"/>
    <trip id="441" depart="730.00" from="-939" to="1573"/>
    <trip id="442" depart="731.00" from="-939" to="1677"/>
    <trip id="443" depart="737.00" from="-1690" to="1677"/>
    <trip id="445" depart="740.00" from="-1677" to="531"/>
    <trip id="446" depart="742.00" from="-1104" to="1573"/>
    <trip id="447" depart="745.00" from="275" to="939"/>
    <trip id="448" depart="745.00" from="-1573" to="1085"/>
    <trip id="449" depart="746.00" from="-1085" to="-1222"/>
    <trip id="450" depart="747.00" from="-531" to="819"/>
    <trip id="451" depart="750.00" from="-1568" to="1677"/>
    <trip id="452" depart="751.00" from="-1104" to="-1222"/>
    <trip id="453" depart="754.00" from="-1568" to="-1222"/>
    <trip id="454" depart="755.00" from="-1573" to="1677"/>
    <trip id="455" depart="756.00" from="1222" to="819"/>
    <trip id="456" depart="759.00" from="-1104" to="-275"/>
    <trip id="457" depart="761.00" from="1222" to="531"/>
    <trip id="458" depart="761.00" from="-1568" to="-1222"/>
    <trip id="459" depart="761.00" from="275" to="939"/>
    <trip id="460" depart="763.00" from="-819" to="1677"/>
    <trip id="461" depart="763.00" from="-1677" to="-275"/>
    <trip id="462" depart="767.00" from="-819" to="1104"/>
    <trip id="464" depart="771.00" from="-1573" to="819"/>
    <trip id="465" depart="772.00" from="-1104" to="939"/>
    <trip id="466" depart="772.00" from="275" to="1568"/>
    <trip id="467" depart="773.00" from="-1677" to="-1222"/>
    <trip id="468" depart="774.00" from="-939" to="1573"/>
    <trip id="469" depart="775.00" from="1222" to="1690"/>
    <trip id="470" depart="778.00" from="-1085" to="1677"/>
    <trip id="471" depart="778.00" from="-531" to="1677"/>
    <trip id="472" depart="779.00" from="-1573" to="939"/>
    <trip id="473" depart="779.00" from="-1573" to="1104"/>
    <trip id="474" depart="786.00" from="1222" to="1568"/>
    <trip id="475" depart="788.00" from="1222" to="1104"/>
    <trip id="476" depart="790.00" from="-1104" to="1573"/>
    <trip id="477" depart="790.00" from="-531" to="1568"/>
    <trip id="478" depart="791.00" from="1222" to="939"/>
    <trip id="479" depart="794.00" from="-939" to="1677"/>
    <trip id="480" depart="795.00" from="-1690" to="819"/>
    <trip id="482" depart="801.00" from="-1573" to="1568"/>
    <trip id="483" depart="802.00" from="-1677" to="1085"/>
    <trip id="484" depart="803.00" from="-1104" to="1568"/>
    <trip id="485" depart="807.00" from="-819" to="939"/>
    <trip id="486" depart="810.00" from="-1085" to="939"/>
    <trip id="487" depart="811.00" from="-531" to="-1222"/>
    <trip id="488" depart="812.00" from="-1085" to="1573"/>
    <trip id="489" depart="816.00" from="-1104" to="-1222"/>
    <trip id="490" depart="817.00" from="-939" to="1104"/>
    <trip id="491" depart="817.00" from="-939" to="819"/>
    <trip id="492" depart="821.00" from="-819" to="-1222"/>
    <trip id="493" depart="823.00" from="-1085" to="-1222"/>
    <trip id="495" depart="831.00" from="-819" to="1568"/>
    <trip id="496" depart="832.00" from="-1573" to="-275"/>
    <trip id="497" depart="833.00" from="-1085" to="-275"/>
    <trip id="498" depart="836.00" from="-1690" to="1104"/>