<?xml version="1.0" encoding="UTF-8"?>

<!-- generated on 2025-03-10 19:36:04.382181 by randomTrips.py v1_19_0+1770-8bb5c24c187
<configuration>
    <net-file value="random_subnetwork_2.net.xml"/>
    <output-trip-file value="random_subnetwork_2_light.trips.xml"/>
    <fringe-factor value="100"/>
    <min-distance value="600.0"/>
    <remove-loops value="True"/>
    <validate value="True"/>
    <period value="2.364418485042247"/>
    <random-depart value="True"/>
    <binomial value="10"/>
</configuration>
-->

<!-- generated on 2025-03-10 19:36:04 by Eclipse SUMO duarouter Version v1_19_0+1770-8bb5c24c187
<configuration xmlns:xsi="http://www.w3.org/2001/XMLSchema-instance" xsi:noNamespaceSchemaLocation="http://sumo.dlr.de/xsd/duarouterConfiguration.xsd">

    <input>
        <net-file value="random_subnetwork_2.net.xml"/>
        <route-files value="random_subnetwork_2_light.trips.xml"/>
    </input>

    <output>
        <output-file value="random_subnetwork_2_light.trips.xml.tmp"/>
        <alternatives-output value="NUL"/>
        <write-trips value="true"/>
    </output>

    <processing>
        <remove-loops value="true"/>
    </processing>

    <time>
        <begin value="0.0"/>
        <end value="3600.0"/>
    </time>

    <report>
        <no-warnings value="true"/>
        <ignore-errors value="true"/>
        <no-step-log value="true"/>
    </report>

</configuration>
-->

<routes xmlns:xsi="http://www.w3.org/2001/XMLSchema-instance" xsi:noNamespaceSchemaLocation="http://sumo.dlr.de/xsd/routes_file.xsd">
    <trip id="0" depart="0.00" from="-27" to="1926"/>
    <trip id="1" depart="0.00" from="-1926" to="-258"/>
    <trip id="2" depart="1.00" from="1439" to="2054"/>
    <trip id="3" depart="5.00" from="-270" to="1926"/>
    <trip id="4" depart="8.00" from="-678" to="275"/>
    <trip id="5" depart="10.00" from="-270" to="-1102"/>
    <trip id="6" depart="25.00" from="1102" to="1926"/>
    <trip id="7" depart="27.00" from="-678" to="275"/>
    <trip id="8" depart="27.00" from="-1926" to="497"/>
    <trip id="9" depart="30.00" from="-678" to="2054"/>
    <trip id="10" depart="31.00" from="1102" to="678"/>
    <trip id="11" depart="33.00" from="-678" to="301"/>
    <trip id="12" depart="36.00" from="1439" to="301"/>
    <trip id="13" depart="37.00" from="-2054" to="275"/>
    <trip id="14" depart="37.00" from="-678" to="301"/>
    <trip id="15" depart="42.00" from="-270" to="301"/>
    <trip id="16" depart="43.00" from="-270" to="275"/>
    <trip id="17" depart="44.00" from="-275" to="270"/>
    <trip id="18" depart="44.00" from="-497" to="-1439"/>
    <trip id="19" depart="45.00" from="-301" to="789"/>
    <trip id="20" depart="46.00" from="-2054" to="-1439"/>
    <trip id="21" depart="47.00" from="-270" to="275"/>
    <trip id="22" depart="52.00" from="1102" to="-1439"/>
    <trip id="23" depart="52.00" from="1439" to="-1102"/>
    <trip id="24" depart="56.00" from="-301" to="1926"/>
    <trip id="25" depart="61.00" from="-275" to="270"/>
    <trip id="26" depart="64.00" from="-275" to="2054"/>
    <trip id="27" depart="65.00" from="-678" to="27"/>
    <trip id="28" depart="74.00" from="-301" to="270"/>
    <trip id="29" depart="76.00" from="-1926" to="275"/>
    <trip id="30" depart="79.00" from="1102" to="503"/>
    <trip id="31" depart="87.00" from="-301" to="27"/>
    <trip id="33" depart="90.00" from="-270" to="27"/>
    <trip id="34" depart="92.00" from="-789" to="1926"/>
    <trip id="35" depart="93.00" from="1102" to="-1439"/>
    <trip id="36" depart="93.00" from="-1926" to="301"/>
    <trip id="37" depart="102.00" from="1439" to="497"/>
    <trip id="38" depart="103.00" from="1102" to="270"/>
    <trip id="39" depart="103.00" from="-678" to="15"/>
    <trip id="40" depart="106.00" from="-270" to="-518"/>
    <trip id="41" depart="106.00" from="-678" to="-1439"/>
    <trip id="42" depart="107.00" from="1439" to="497"/>
    <trip id="43" depart="108.00" from="-270" to="43"/>
    <trip id="44" depart="121.00" from="-270" to="301"/>
    <trip id="45" depart="125.00" from="-1926" to="27"/>
    <trip id="46" depart="126.00" from="1439" to="497"/>
    <trip id="47" depart="127.00" from="1102" to="270"/>
    <trip id="48" depart="128.00" from="-301" to="1926"/>
    <trip id="49" depart="130.00" from="1102" to="2054"/>
    <trip id="50" depart="132.00" from="289" to="270"/>
    <trip id="51" depart="137.00" from="-1926" to="301"/>
    <trip id="52" depart="142.00" from="-301" to="2054"/>
    <trip id="53" depart="147.00" from="-1926" to="275"/>
    <trip id="54" depart="152.00" from="1439" to="27"/>
    <trip id="55" depart="158.00" from="-275" to="678"/>
    <trip id="56" depart="159.00" from="-2054" to="275"/>
    <trip id="57" depart="166.00" from="-301" to="678"/>
    <trip id="58" depart="168.00" from="-301" to="-1439"/>
    <trip id="59" depart="172.00" from="-1926" to="-1439"/>
    <trip id="60" depart="178.00" from="43" to="2054"/>
    <trip id="61" depart="179.00" from="-497" to="270"/>
    <trip id="62" depart="181.00" from="-27" to="-1439"/>
    <trip id="63" depart="181.00" from="-1926" to="301"/>
    <trip id="64" depart="187.00" from="1439" to="678"/>
    <trip id="65" depart="192.00" from="1102" to="678"/>
    <trip id="66" depart="193.00" from="-301" to="2054"/>
    <trip id="67" depart="194.00" from="-301" to="-1102"/>
    <trip id="68" depart="194.00" from="1102" to="678"/>
    <trip id="69" depart="196.00" from="-2054" to="27"/>
    <trip id="70" depart="198.00" from="1439" to="2054"/>
    <trip id="71" depart="201.00" from="-27" to="678"/>
    <trip id="72" depart="203.00" from="-270" to="2054"/>
    <trip id="73" depart="203.00" from="-270" to="-1102"/>
    <trip id="74" depart="213.00" from="-27" to="270"/>
    <trip id="75" depart="214.00" from="-2054" to="27"/>
    <trip id="76" depart="217.00" from="-497" to="2054"/>
    <trip id="77" depart="222.00" from="-2054" to="497"/>
    <trip id="78" depart="223.00" from="-678" to="1926"/>
    <trip id="79" depart="224.00" from="-678" to="270"/>
    <trip id="80" depart="230.00" from="-678" to="301"/>
    <trip id="81" depart="233.00" from="1439" to="-295"/>
    <trip id="82" depart="235.00" from="-275" to="-1439"/>
    <trip id="83" depart="235.00" from="-678" to="497"/>
    <trip id="84" depart="237.00" from="-678" to="275"/>
    <trip id="85" depart="241.00" from="-1926" to="-1102"/>
    <trip id="86" depart="246.00" from="1102" to="1926"/>
    <trip id="87" depart="250.00" from="-270" to="275"/>
    <trip id="88" depart="251.00" from="-275" to="1926"/>
    <trip id="89" depart="252.00" from="-678" to="-1439"/>
    <trip id="90" depart="257.00" from="1102" to="2054"/>
    <trip id="91" depart="257.00" from="-678" to="1926"/>
    <trip id="92" depart="258.00" from="1102" to="678"/>
    <trip id="93" depart="259.00" from="-1926" to="518"/>
    <trip id="94" depart="260.00" from="-497" to="-1439"/>
    <trip id="95" depart="260.00" from="-497" to="1926"/>
    <trip id="96" depart="265.00" from="-301" to="270"/>
    <trip id="97" depart="267.00" from="1439" to="-289"/>
    <trip id="98" depart="267.00" from="-301" to="678"/>
    <trip id="99" depart="270.00" from="-497" to="678"/>
    <trip id="100" depart="273.00" from="-270" to="301"/>
    <trip id="101" depart="275.00" from="-1926" to="-43"/>
    <trip id="102" depart="277.00" from="-2054" to="1926"/>
    <trip id="103" depart="285.00" from="-27" to="-1439"/>
    <trip id="104" depart="286.00" from="1439" to="2054"/>
    <trip id="105" depart="286.00" from="1102" to="1926"/>
    <trip id="106" depart="289.00" from="-2054" to="497"/>
    <trip id="107" depart="290.00" from="-2054" to="497"/>
    <trip id="108" depart="292.00" from="-678" to="301"/>
    <trip id="109" depart="292.00" from="1439" to="275"/>
    <trip id="110" depart="292.00" from="-270" to="678"/>
    <trip id="111" depart="296.00" from="-678" to="270"/>
    <trip id="112" depart="302.00" from="-27" to="301"/>
    <trip id="113" depart="303.00" from="154" to="2054"/>
    <trip id="114" depart="303.00" from="-270" to="497"/>
    <trip id="115" depart="306.00" from="1102" to="1926"/>
    <trip id="116" depart="307.00" from="-518" to="27"/>
    <trip id="117" depart="309.00" from="-301" to="-493"/>
    <trip id="118" depart="310.00" from="-497" to="678"/>
    <trip id="119" depart="311.00" from="-270" to="301"/>
    <trip id="120" depart="315.00" from="-27" to="2054"/>
    <trip id="121" depart="319.00" from="-1926" to="270"/>
    <trip id="122" depart="330.00" from="-2054" to="275"/>
    <trip id="123" depart="331.00" from="1102" to="-1439"/>
    <trip id="124" depart="332.00" from="-678" to="497"/>
    <trip id="125" depart="338.00" from="1439" to="275"/>
    <trip id="126" depart="340.00" from="-1926" to="275"/>
    <trip id="127" depart="343.00" from="-497" to="270"/>
    <trip id="128" depart="346.00" from="-497" to="270"/>
    <trip id="129" depart="350.00" from="-27" to="1926"/>
    <trip id="130" depart="352.00" from="-301" to="-1102"/>
    <trip id="131" depart="360.00" from="-1926" to="270"/>
    <trip id="132" depart="361.00" from="-301" to="-1102"/>
    <trip id="133" depart="361.00" from="-678" to="275"/>
    <trip id="134" depart="364.00" from="-678" to="27"/>
    <trip id="135" depart="368.00" from="-270" to="2054"/>
    <trip id="136" depart="371.00" from="-1926" to="-1439"/>
    <trip id="137" depart="372.00" from="-270" to="678"/>
    <trip id="138" depart="373.00" from="-497" to="270"/>
    <trip id="139" depart="373.00" from="-27" to="-11"/>
    <trip id="140" depart="377.00" from="-2054" to="-1102"/>
    <trip id="141" depart="378.00" from="1102" to="1926"/>
    <trip id="142" depart="381.00" from="-301" to="678"/>
    <trip id="143" depart="383.00" from="-27" to="270"/>
    <trip id="144" depart="388.00" from="-2054" to="497"/>
    <trip id="145" depart="392.00" from="-678" to="275"/>
    <trip id="146" depart="393.00" from="-2054" to="275"/>
    <trip id="147" depart="394.00" from="-270" to="27"/>
    <trip id="148" depart="396.00" from="-270" to="27"/>
    <trip id="149" depart="396.00" from="1439" to="678"/>
    <trip id="150" depart="396.00" from="-275" to="1926"/>
    <trip id="151" depart="396.00" from="-301" to="2054"/>
    <trip id="152" depart="399.00" from="-1926" to="270"/>
    <trip id="153" depart="402.00" from="-301" to="678"/>
    <trip id="154" depart="402.00" from="-258" to="497"/>
    <trip id="155" depart="403.00" from="-1926" to="301"/>
    <trip id="156" depart="408.00" from="-497" to="2054"/>
    <trip id="157" depart="408.00" from="1102" to="301"/>
    <trip id="158" depart="412.00" from="1439" to="678"/>
    <trip id="159" depart="417.00" from="-27" to="270"/>
    <trip id="160" depart="418.00" from="-1926" to="2054"/>
    <trip id="161" depart="420.00" from="-678" to="2054"/>
    <trip id="162" depart="421.00" from="-301" to="-1439"/>
    <trip id="163" depart="424.00" from="-270" to="678"/>
    <trip id="164" depart="426.00" from="-678" to="-1439"/>
    <trip id="165" depart="426.00" from="-27" to="270"/>
    <trip id="166" depart="427.00" from="-1926" to="-1439"/>
    <trip id="167" depart="428.00" from="-270" to="1926"/>
    <trip id="168" depart="428.00" from="-27" to="2054"/>
    <trip id="169" depart="429.00" from="-27" to="270"/>
    <trip id="170" depart="431.00" from="-301" to="1926"/>
    <trip id="171" depart="437.00" from="-678" to="-1102"/>
    <trip id="172" depart="439.00" from="-678" to="2054"/>
    <trip id="173" depart="447.00" from="1102" to="1926"/>
    <trip id="174" depart="448.00" from="1102" to="1926"/>
    <trip id="175" depart="454.00" from="-1926" to="275"/>
    <trip id="176" depart="455.00" from="-27" to="1926"/>
    <trip id="177" depart="455.00" from="-497" to="2054"/>
    <trip id="178" depart="455.00" from="-270" to="275"/>
    <trip id="180" depart="459.00" from="1439" to="154"/>
    <trip id="181" depart="459.00" from="-2054" to="678"/>
    <trip id="182" depart="461.00" from="1439" to="275"/>
    <trip id="183" depart="463.00" from="-497" to="270"/>
    <trip id="184" depart="468.00" from="-275" to="2054"/>
    <trip id="185" depart="473.00" from="-2054" to="-1439"/>
    <trip id="186" depart="474.00" from="11" to="2054"/>
    <trip id="187" depart="477.00" from="-678" to="27"/>
    <trip id="188" depart="483.00" from="1439" to="301"/>
    <trip id="189" depart="485.00" from="-2054" to="-1439"/>
    <trip id="190" depart="488.00" from="1439" to="27"/>
    <trip id="191" depart="489.00" from="1439" to="275"/>
    <trip id="192" depart="491.00" from="-1926" to="-1439"/>
    <trip id="193" depart="491.00" from="-1926" to="678"/>
    <trip id="194" depart="498.00" from="1439" to="497"/>
    <trip id="195" depart="500.00" from="-678" to="497"/>
    <trip id="196" depart="502.00" from="-1926" to="301"/>
    <trip id="197" depart="503.00" from="-2054" to="275"/>
    <trip id="198" depart="507.00" from="-1926" to="497"/>
    <trip id="199" depart="507.00" from="-2054" to="-1102"/>
    <trip id="200" depart="508.00" from="-2054" to="27"/>
    <trip id="201" depart="509.00" from="-27" to="-1439"/>
    <trip id="202" depart="518.00" from="1439" to="-1102"/>
    <trip id="203" depart="518.00" from="-301" to="27"/>
    <trip id="204" depart="519.00" from="-2054" to="1926"/>
    <trip id="205" depart="519.00" from="1102" to="2054"/>
    <trip id="206" depart="520.00" from="-275" to="1926"/>
    <trip id="207" depart="531.00" from="-27" to="-1439"/>
    <trip id="208" depart="531.00" from="-270" to="2054"/>
    <trip id="209" depart="532.00" from="-270" to="301"/>
    <trip id="210" depart="535.00" from="-301" to="27"/>
    <trip id="211" depart="540.00" from="-15" to="1926"/>
    <trip id="212" depart="545.00" from="-301" to="2054"/>
    <trip id="213" depart="548.00" from="1102" to="1926"/>
    <trip id="214" depart="552.00" from="-27" to="-1439"/>
    <trip id="215" depart="554.00" from="-27" to="270"/>
    <trip id="216" depart="562.00" from="-275" to="678"/>
    <trip id="217" depart="562.00" from="-301" to="497"/>
    <trip id="218" depart="564.00" from="-1926" to="497"/>
    <trip id="219" depart="565.00" from="1439" to="2054"/>
    <trip id="220" depart="566.00" from="-270" to="27"/>
    <trip id="221" depart="571.00" from="-678" to="497"/>
    <trip id="222" depart="575.00" from="-2054" to="-1439"/>
    <trip id="223" depart="576.00" from="1439" to="2054"/>
    <trip id="224" depart="580.00" from="1439" to="275"/>
    <trip id="225" depart="583.00" from="1439" to="27"/>
    <trip id="226" depart="584.00" from="-1926" to="275"/>
    <trip id="227" depart="592.00" from="-678" to="275"/>
    <trip id="228" depart="597.00" from="-27" to="301"/>
    <trip id="229" depart="598.00" from="-270" to="301"/>
    <trip id="230" depart="600.00" from="-275" to="270"/>
    <trip id="231" depart="601.00" from="1439" to="275"/>
    <trip id="232" depart="606.00" from="-270" to="27"/>
    <trip id="233" depart="611.00" from="-2054" to="-1439"/>
    <trip id="234" depart="612.00" from="-2054" to="-1102"/>
    <trip id="235" depart="614.00" from="-2054" to="-1439"/>
    <trip id="236" depart="615.00" from="-497" to="301"/>
    <trip id="237" depart="617.00" from="-27" to="-1439"/>
    <trip id="238" depart="620.00" from="1102" to="2054"/>
    <trip id="239" depart="621.00" from="-1926" to="27"/>
    <trip id="240" depart="623.00" from="-2054" to="275"/>
    <trip id="241" depart="627.00" from="-2054" to="-1102"/>
    <trip id="242" depart="629.00" from="-27" to="270"/>
    <trip id="243" depart="631.00" from="-270" to="301"/>
    <trip id="244" depart="632.00" from="1102" to="270"/>
    <trip id="245" depart="639.00" from="-3" to="1926"/>
    <trip id="246" depart="645.00" from="-789" to="1926"/>
    <trip id="247" depart="646.00" from="1102" to="2054"/>
    <trip id="248" depart="647.00" from="-1926" to="2054"/>
    <trip id="249" depart="651.00" from="-27" to="678"/>
    <trip id="250" depart="651.00" from="1439" to="27"/>
    <trip id="251" depart="654.00" from="-678" to="275"/>
    <trip id="252" depart="654.00" from="-275" to="515"/>
    <trip id="253" depart="655.00" from="-497" to="2054"/>
    <trip id="254" depart="656.00" from="-275" to="678"/>
    <trip id="255" depart="656.00" from="-27" to="678"/>
    <trip id="256" depart="662.00" from="-2054" to="-1102"/>
    <trip id="257" depart="662.00" from="-27" to="-1439"/>
    <trip id="258" depart="665.00" from="-270" to="497"/>
    <trip id="259" depart="666.00" from="-270" to="301"/>
    <trip id="260" depart="670.00" from="-1926" to="27"/>
    <trip id="261" depart="672.00" from="-27" to="-1102"/>
    <trip id="262" depart="673.00" from="-2054" to="1926"/>
    <trip id="263" depart="674.00" from="-21" to="-1439"/>
    <trip id="264" depart="674.00" from="1102" to="678"/>
    <trip id="265" depart="675.00" from="-497" to="2054"/>
    <trip id="266" depart="680.00" from="-27" to="-295"/>
    <trip id="267" depart="683.00" from="-266" to="-1916"/>
    <trip id="268" depart="685.00" from="-270" to="497"/>
    <trip id="269" depart="688.00" from="-270" to="27"/>
    <trip id="270" depart="688.00" from="-2054" to="678"/>
    <trip id="271" depart="690.00" from="-515" to="27"/>
    <trip id="272" depart="693.00" from="-2054" to="-1102"/>
    <trip id="273" depart="699.00" from="-2054" to="678"/>
    <trip id="274" depart="700.00" from="-301" to="2054"/>
    <trip id="275" depart="701.00" from="-678" to="497"/>
    <trip id="276" depart="701.00" from="-678" to="301"/>
    <trip id="277" depart="709.00" from="1439" to="301"/>
    <trip id="278" depart="710.00" from="1102" to="2054"/>
    <trip id="279" depart="711.00" from="-2054" to="275"/>
    <trip id="280" depart="714.00" from="-270" to="497"/>
    <trip id="281" depart="716.00" from="-301" to="678"/>
    <trip id="282" depart="717.00" from="1439" to="2054"/>
    <trip id="283" depart="718.00" from="-497" to="1926"/>
    <trip id="284" depart="719.00" from="-678" to="275"/>
    <trip id="285" depart="722.00" from="-1926" to="275"/>
    <trip id="286" depart="725.00" from="-301" to="678"/>
    <trip id="287" depart="726.00" from="-497" to="678"/>
    <trip id="288" depart="729.00" from="-270" to="-1102"/>
    <trip id="289" depart="737.00" from="-1926" to="270"/>
    <trip id="290" depart="745.00" from="-678" to="270"/>
    <trip id="291" depart="746.00" from="-497" to="2054"/>
    <trip id="292" depart="748.00" from="-301" to="270"/>
    <trip id="293" depart="749.00" from="-301" to="270"/>
    <trip id="294" depart="752.00" from="1439" to="27"/>
    <trip id="295" depart="752.00" from="-270" to="678"/>
    <trip id="296" depart="757.00" from="-2054" to="-1439"/>
    <trip id="297" depart="758.00" from="-270" to="678"/>
    <trip id="298" depart="760.00" from="-301" to="-1439"/>
    <trip id="299" depart="769.00" from="-275" to="2054"/>
    <trip id="300" depart="769.00" from="-301" to="-1102"/>
    <trip id="301" depart="772.00" from="-258" to="27"/>
    <trip id="302" depart="773.00" from="-2054" to="27"/>
    <trip id="303" depart="776.00" from="295" to="678"/>
    <trip id="304" depart="778.00" from="-1926" to="301"/>
    <trip id="305" depart="779.00" from="-301" to="497"/>
    <trip id="306" depart="784.00" from="-2054" to="-1102"/>
    <trip id="307" depart="787.00" from="-2054" to="497"/>
    <trip id="308" depart="788.00" from="-270" to="-1102"/>
    <trip id="309" depart="792.00" from="-2054" to="-1439"/>
    <trip id="310" depart="793.00" from="1102" to="301"/>
    <trip id="311" depart="794.00" from="1439" to="678"/>
    <trip id="312" depart="796.00" from="-275" to="-1439"/>
    <trip id="313" depart="800.00" from="-497" to="2054"/>
    <trip id="315" depart="806.00" from="1439" to="2054"/>
    <trip id="316" depart="806.00" from="-270" to="-1102"/>
    <trip id="317" depart="808.00" from="-678" to="27"/>
    <trip id="318" depart="808.00" from="1102" to="270"/>
    <trip id="319" depart="811.00" from="-27" to="270"/>
    <trip id="320" depart="812.00" from="-27" to="678"/>
    <trip id="321" depart="812.00" from="-270" to="1926"/>
    <trip id="322" depart="820.00" from="1102" to="2054"/>
    <trip id="323" depart="821.00" from="1102" to="1926"/>
    <trip id="324" depart="824.00" from="-2054" to="27"/>
    <trip id="325" depart="824.00" from="-497" to="2054"/>
    <trip id="326" depart="828.00" from="-678" to="270"/>
    <trip id="327" depart="829.00" from="-2054" to="27"/>
    <trip id="328" depart="831.00" from="1439" to="27"/>
    <trip id="330" depart="835.00" from="-270" to="1926"/>
    <trip id="331" depart="836.00" from="-497" to="2054"/>
    <trip id="332" depart="839.00" from="-1926" to="2054"/>
    <trip id="333" depart="843.00" from="-1926" to="678"/>
    <trip id="334" depart="843.00" from="-2054" to="270"/>
    <trip id="335" depart="844.00" from="1439" to="678"/>
    <trip id="336" depart="844.00" from="-1926" to="270"/>
    <trip id="337" depart="849.00" from="-301" to="270"/>
    <trip id="338" depart="849.00" from="1102" to="2054"/>
    <trip id="339" depart="850.00" from="-270" to="27"/>
    <trip id="340" depart="854.00" from="-678" to="1926"/>
    <trip id="341" depart="855.00" from="-1926" to="-1102"/>
    <trip id="342" depart="860.00" from="-2054" to="-1439"/>
    <trip id="343" depart="863.00" from="-27" to="678"/>
    <trip id="344" depart="866.00" from="-27" to="-1102"/>
    <trip id="345" depart="868.00" from="-275" to="2054"/>
    <trip id="346" depart="871.00" from="-270" to="301"/>
    <trip id="347" depart="872.00" from="1439" to="497"/>
    <trip id="348" depart="875.00" from="-301" to="2054"/>
    <trip id="349" depart="876.00" from="-270" to="27"/>
    <trip id="350" depart="877.00" from="-27" to="2054"/>
    <trip id="351" depart="881.00" from="-301" to="678"/>
    <trip id="352" depart="883.00" from="-1926" to="497"/>
    <trip id="353" depart="885.00" from="-2054" to="-11"/>
    <trip id="354" depart="889.00" from="-275" to="270"/>
    <trip id="355" depart="889.00" from="-270" to="275"/>
    <trip id="356" depart="902.00" from="-270" to="1926"/>
    <trip id="357" depart="904.00" from="15" to="678"/>
    <trip id="358" depart="905.00" from="-1926" to="27"/>
    <trip id="359" depart="905.00" from="-1926" to="301"/>
    <trip id="360" depart="908.00" from="-678" to="497"/>
    <trip id="361" depart="913.00" from="-27" to="2054"/>
    <trip id="362" depart="915.00" from="1439" to="678"/>
    <trip id="363" depart="917.00" from="1102" to="678"/>
    <trip id="364" depart="921.00" from="-301" to="-1102"/>
    <trip id="365" depart="925.00" from="-301" to="270"/>
    <trip id="366" depart="925.00" from="-678" to="2054"/>
    <trip id="367" depart="931.00" from="-2054" to="1926"/>
    <trip id="368" depart="931.00" from="295" to="-1439"/>
    <trip id="369" depart="939.00" from="1439" to="678"/>
    <trip id="370" depart="939.00" from="-27" to="678"/>
    <trip id="371" depart="942.00" from="1439" to="275"/>
    <trip id="372" depart="944.00" from="-1926" to="270"/>
    <trip id="373" depart="950.00" from="-678" to="480"/>
    <trip id="374" depart="952.00" from="-1926" to="678"/>
    <trip id="375" depart="954.00" from="1102" to="270"/>
    <trip id="376" depart="955.00" from="-27" to="-295"/>
    <trip id="377" depart="956.00" from="-301" to="2054"/>
    <trip id="378" depart="960.00" from="-518" to="301"/>
    <trip id="379" depart="962.00" from="-275" to="-1439"/>
    <trip id="380" depart="965.00" from="-275" to="-1439"/>
    <trip id="381" depart="973.00" from="-270" to="27"/>
    <trip id="382" depart="974.00" from="-275" to="270"/>
    <trip id="383" depart="974.00" from="-270" to="-1102"/>
    <trip id="384" depart="974.00" from="-1926" to="275"/>
    <trip id="385" depart="976.00" from="-1926" to="497"/>
    <trip id="386" depart="977.00" from="-270" to="301"/>
    <trip id="387" depart="979.00" from="-27" to="2054"/>
    <trip id="388" depart="984.00" from="1102" to="2054"/>
    <trip id="389" depart="985.00" from="-2054" to="275"/>
    <trip id="390" depart="986.00" from="-678" to="275"/>
    <trip id="391" depart="986.00" from="-275" to="2054"/>
    <trip id="392" depart="987.00" from="1102" to="27"/>
    <trip id="393" depart="989.00" from="-301" to="678"/>
    <trip id="394" depart="990.00" from="-2054" to="497"/>
    <trip id="395" depart="996.00" from="1439" to="27"/>
    <trip id="396" depart="997.00" from="-270" to="27"/>
    <trip id="397" depart="1001.00" from="-270" to="275"/>
    <trip id="398" depart="1001.00" from="-678" to="1926"/>
    <trip id="399" depart="1004.00" from="1439" to="1926"/>
    <trip id="400" depart="1007.00" from="-275" to="-1439"/>
    <trip id="401" depart="1007.00" from="-270" to="-1102"/>
    <trip id="402" depart="1008.00" from="-270" to="2054"/>
    <trip id="403" depart="1009.00" from="1102" to="678"/>
    <trip id="404" depart="1010.00" from="-497" to="-1439"/>
    <trip id="405" depart="1010.00" from="-3" to="1926"/>
    <trip id="406" depart="1019.00" from="-1926" to="275"/>
    <trip id="407" depart="1020.00" from="-27" to="2054"/>
    <trip id="408" depart="1026.00" from="-27" to="1926"/>
    <trip id="409" depart="1028.00" from="1439" to="2054"/>
    <trip id="410" depart="1031.00" from="-497" to="270"/>
    <trip id="411" depart="1035.00" from="-678" to="270"/>
    <trip id="412" depart="1042.00" from="-678" to="-5"/>
    <trip id="413" depart="1046.00" from="-678" to="-1102"/>
    <trip id="414" depart="1048.00" from="-2054" to="21"/>
    <trip id="415" depart="1049.00" from="1102" to="27"/>
    <trip id="416" depart="1052.00" from="-301" to="-1102"/>
    <trip id="417" depart="1052.00" from="-27" to="1926"/>
    <trip id="418" depart="1053.00" from="-678" to="270"/>
    <trip id="419" depart="1058.00" from="1102" to="2054"/>
    <trip id="420" depart="1063.00" from="1102" to="678"/>
    <trip id="421" depart="1063.00" from="1439" to="-1102"/>
    <trip id="422" depart="1068.00" from="1439" to="2054"/>
    <trip id="423" depart="1068.00" from="1102" to="-1439"/>
    <trip id="424" depart="1073.00" from="-678" to="2054"/>
    <trip id="425" depart="1076.00" from="-27" to="270"/>
    <trip id="426" depart="1079.00" from="-2054" to="1926"/>
    <trip id="427" depart="1088.00" from="-301" to="-1102"/>
    <trip id="428" depart="1095.00" from="1102" to="678"/>
    <trip id="429" depart="1096.00" from="-27" to="-1102"/>
    <trip id="430" depart="1103.00" from="-497" to="301"/>
    <trip id="431" depart="1107.00" from="-497" to="678"/>
    <trip id="432" depart="1108.00" from="-270" to="-1102"/>
    <trip id="433" depart="1110.00" from="-1926" to="270"/>
    <trip id="434" depart="1115.00" from="-2054" to="270"/>
    <trip id="435" depart="1116.00" from="1439" to="1926"/>
    <trip id="437" depart="1119.00" from="1102" to="678"/>
    <trip id="438" depart="1126.00" from="1439" to="301"/>
    <trip id="439" depart="1133.00" from="1102" to="-1439"/>
    <trip id="440" depart="1140.00" from="1102" to="1926"/>
    <trip id="441" depart="1143.00" from="-503" to="497"/>
    <trip id="442" depart="1146.00" from="1439" to="27"/>
    <trip id="443" depart="1147.00" from="-678" to="301"/>
    <trip id="444" depart="1148.00" from="-270" to="678"/>
    <trip id="445" depart="1148.00" from="-270" to="493"/>
    <trip id="446" depart="1151.00" from="-1926" to="497"/>
    <trip id="447" depart="1152.00" from="1102" to="1926"/>
    <trip id="448" depart="1154.00" from="-2054" to="-21"/>
    <trip id="449" depart="1157.00" from="-678" to="-1102"/>
    <trip id="450" depart="1160.00" from="295" to="275"/>
    <trip id="451" depart="1160.00" from="-2054" to="270"/>
    <trip id="452" depart="1161.00" from="-270" to="1926"/>
    <trip id="453" depart="1163.00" from="-275" to="-1439"/>
    <trip id="454" depart="1166.00" from="-301" to="-1102"/>
    <trip id="455" depart="1170.00" from="-27" to="-1439"/>
    <trip id="456" depart="1170.00" from="-497" to="301"/>
    <trip id="457" depart="1173.00" from="-27" to="270"/>
    <trip id="458" depart="1178.00" from="-678" to="27"/>
    <trip id="459" depart="1178.00" from="-480" to="-503"/>
    <trip id="460" depart="1178.00" from="-678" to="270"/>
    <trip id="461" depart="1180.00" from="-301" to="2054"/>
    <trip id="462" depart="1180.00" from="1102" to="301"/>
    <trip id="463" depart="1184.00" from="-1926" to="-1102"/>
    <trip id="464" depart="1184.00" from="-27" to="-11"/>
    <trip id="465" depart="1185.00" from="-2054" to="-1439"/>
    <trip id="466" depart="1187.00" from="-301" to="-1102"/>
    <trip id="467" depart="1188.00" from="-2054" to="-1102"/>
    <trip id="468" depart="1197.00" from="1102" to="27"/>
    <trip id="469" depart="1198.00" from="-1926" to="-1439"/>
    <trip id="470" depart="1200.00" from="-3" to="-1102"/>
    <trip id="471" depart="1200.00" from="-678" to="497"/>
    <trip id="472" depart="1201.00" from="-1926" to="27"/>
    <trip id="473" depart="1202.00" from="-270" to="301"/>
    <trip id="474" depart="1203.00" from="-2054" to="497"/>
    <trip id="475" depart="1205.00" from="-678" to="497"/>
    <trip id="476" depart="1207.00" from="-497" to="-1439"/>
    <trip id="477" depart="1210.00" from="-1926" to="301"/>
    <trip id="478" depart="1210.00" from="1102" to="-1439"/>
    <trip id="479" depart="1213.00" from="-497" to="678"/>
    <trip id="480" depart="1215.00" from="-1926" to="-1102"/>
    <trip id="481" depart="1223.00" from="-2054" to="678"/>
    <trip id="482" depart="1226.00" from="-270" to="275"/>
    <trip id="483" depart="1233.00" from="1439" to="1926"/>
    <trip id="484" depart="1239.00" from="1102" to="301"/>
    <trip id="485" depart="1240.00" from="-301" to="-1102"/>
    <trip id="486" depart="1241.00" from="-497" to="2054"/>
    <trip id="487" depart="1244.00" from="-2054" to="497"/>
    <trip id="488" depart="1244.00" from="-1926" to="678"/>
    <trip id="489" depart="1247.00" from="-27" to="270"/>
    <trip id="490" depart="1247.00" from="-27" to="-1102"/>