<?xml version="1.0" encoding="UTF-8"?>

<!-- generated on 2025-03-04 13:53:47 by Eclipse SUMO netedit Version 1.20.0
<configuration xmlns:xsi="http://www.w3.org/2001/XMLSchema-instance" xsi:noNamespaceSchemaLocation="http://sumo.dlr.de/xsd/neteditConfiguration.xsd">

    <input>
        <sumo-net-file value="/Users/rohitbokade/Desktop/random_subnetworks/random_subnetwork_4.net.xml"/>
    </input>

    <output>
        <output-file value="/Users/rohitbokade/Desktop/random_subnetworks/random_subnetwork_4.net.xml"/>
    </output>

    <processing>
        <geometry.min-radius.fix.railways value="false"/>
        <geometry.max-grade.fix value="false"/>
        <offset.disable-normalization value="true"/>
        <lefthand value="0"/>
    </processing>

    <junctions>
        <no-turnarounds value="true"/>
        <junctions.corner-detail value="5"/>
        <junctions.limit-turn-speed value="5.50"/>
        <rectangular-lane-cut value="0"/>
    </junctions>

    <pedestrian>
        <walkingareas value="0"/>
    </pedestrian>

</configuration>
-->

<net version="1.20" junctionCornerDetail="5" limitTurnSpeed="5.50" xmlns:xsi="http://www.w3.org/2001/XMLSchema-instance" xsi:noNamespaceSchemaLocation="http://sumo.dlr.de/xsd/net_file.xsd">

    <location netOffset="2000.00,1800.00" convBoundary="1000.00,1600.00,1800.00,3000.00" origBoundary="-2000.00,-1800.00,800.00,1200.00" projParameter="!"/>

    <edge id=":1071_0" function="internal">
        <lane id=":1071_0_0" index="0" speed="3.65" length="4.67" shape="1398.40,1800.00 1399.20,1798.80 1400.00,1798.40 1400.80,1798.80 1401.60,1800.00"/>
    </edge>
    <edge id=":1438_0" function="internal">
        <lane id=":1438_0_0" index="0" speed="8.96" length="18.06" shape="1206.40,2004.80 1201.50,2004.10 1198.00,2002.00 1195.90,1998.50 1195.20,1993.60"/>
        <lane id=":1438_0_1" index="1" speed="7.66" length="12.90" shape="1206.40,2001.60 1202.90,2001.10 1200.40,1999.60 1198.90,1997.10 1198.40,1993.60"/>
    </edge>
    <edge id=":1438_2" function="internal">
        <lane id=":1438_2_0" index="0" speed="3.90" length="2.58" shape="1204.80,1993.60 1204.90,1994.30 1205.20,1994.80 1205.70,1995.10 1206.40,1995.20"/>
        <lane id=":1438_2_1" index="1" speed="6.08" length="7.74" shape="1201.60,1993.60 1201.90,1995.70 1202.80,1997.20 1204.30,1998.10 1206.40,1998.40"/>
    </edge>
    <edge id=":1442_0" function="internal">
        <lane id=":1442_0_0" index="0" speed="3.90" length="2.58" shape="1595.20,2006.40 1595.10,2005.70 1594.80,2005.20 1594.30,2004.90 1593.60,2004.80"/>
        <lane id=":1442_0_1" index="1" speed="6.08" length="7.74" shape="1598.40,2006.40 1598.10,2004.30 1597.20,2002.80 1595.70,2001.90 1593.60,2001.60"/>
    </edge>
    <edge id=":1442_2" function="internal">
        <lane id=":1442_2_0" index="0" speed="8.96" length="18.06" shape="1593.60,1995.20 1598.50,1995.90 1602.00,1998.00 1604.10,2001.50 1604.80,2006.40"/>
        <lane id=":1442_2_1" index="1" speed="7.66" length="12.90" shape="1593.60,1998.40 1597.10,1998.90 1599.60,2000.40 1601.10,2002.90 1601.60,2006.40"/>
    </edge>
    <edge id=":1447_0" function="internal">
        <lane id=":1447_0_0" index="0" speed="8.96" length="18.06" shape="1604.80,2193.60 1604.10,2198.50 1602.00,2202.00 1598.50,2204.10 1593.60,2204.80"/>
        <lane id=":1447_0_1" index="1" speed="7.66" length="12.90" shape="1601.60,2193.60 1601.10,2197.10 1599.60,2199.60 1597.10,2201.10 1593.60,2201.60"/>
    </edge>
    <edge id=":1447_2" function="internal">
        <lane id=":1447_2_0" index="0" speed="3.90" length="2.58" shape="1593.60,2195.20 1594.30,2195.10 1594.80,2194.80 1595.10,2194.30 1595.20,2193.60"/>
        <lane id=":1447_2_1" index="1" speed="6.08" length="7.74" shape="1593.60,2198.40 1595.70,2198.10 1597.20,2197.20 1598.10,2195.70 1598.40,2193.60"/>
    </edge>
    <edge id=":1572_0" function="internal">
        <lane id=":1572_0_0" index="0" speed="3.65" length="4.67" shape="1198.40,1600.00 1199.20,1598.80 1200.00,1598.40 1200.80,1598.80 1201.60,1600.00"/>
    </edge>
    <edge id=":269_0" function="internal">
        <lane id=":269_0_0" index="0" speed="3.65" length="4.67" shape="1800.00,2398.40 1801.20,2399.20 1801.60,2400.00 1801.20,2400.80 1800.00,2401.60"/>
    </edge>
    <edge id=":306_0" function="internal">
        <lane id=":306_0_0" index="0" speed="6.51" length="9.03" shape="1395.20,2410.40 1394.85,2407.95 1393.80,2406.20 1392.05,2405.15 1389.60,2404.80"/>
    </edge>
    <edge id=":306_1" function="internal">
        <lane id=":306_1_0" index="0" speed="13.89" length="20.80" shape="1395.20,2410.40 1395.20,2389.60"/>
        <lane id=":306_1_1" index="1" speed="13.89" length="20.80" shape="1398.40,2410.40 1398.40,2389.60"/>
    </edge>
    <edge id=":306_3" function="internal">
        <lane id=":306_3_0" index="0" speed="9.26" length="5.01" shape="1398.40,2410.40 1399.11,2405.44"/>
    </edge>
    <edge id=":306_4" function="internal">
        <lane id=":306_4_0" index="0" speed="3.65" length="1.44" shape="1398.40,2410.40 1399.20,2409.20"/>
    </edge>
    <edge id=":306_20" function="internal">
        <lane id=":306_20_0" index="0" speed="9.26" length="14.34" shape="1399.11,2405.44 1399.15,2405.15 1401.40,2401.40 1405.15,2399.15 1410.40,2398.40"/>
    </edge>
    <edge id=":306_21" function="internal">
        <lane id=":306_21_0" index="0" speed="3.65" length="3.23" shape="1399.20,2409.20 1400.00,2408.80 1400.80,2409.20 1401.60,2410.40"/>
    </edge>
    <edge id=":306_5" function="internal">
        <lane id=":306_5_0" index="0" speed="6.51" length="9.03" shape="1410.40,2404.80 1407.95,2405.15 1406.20,2406.20 1405.15,2407.95 1404.80,2410.40"/>
    </edge>
    <edge id=":306_6" function="internal">
        <lane id=":306_6_0" index="0" speed="13.89" length="20.80" shape="1410.40,2404.80 1389.60,2404.80"/>
        <lane id=":306_6_1" index="1" speed="13.89" length="20.80" shape="1410.40,2401.60 1389.60,2401.60"/>
    </edge>
    <edge id=":306_8" function="internal">
        <lane id=":306_8_0" index="0" speed="9.26" length="5.01" shape="1410.40,2401.60 1405.44,2400.89"/>
    </edge>
    <edge id=":306_9" function="internal">
        <lane id=":306_9_0" index="0" speed="3.65" length="1.44" shape="1410.40,2401.60 1409.20,2400.80"/>
    </edge>
    <edge id=":306_22" function="internal">
        <lane id=":306_22_0" index="0" speed="9.26" length="14.34" shape="1405.44,2400.89 1405.15,2400.85 1401.40,2398.60 1399.15,2394.85 1398.40,2389.60"/>
    </edge>
    <edge id=":306_23" function="internal">
        <lane id=":306_23_0" index="0" speed="3.65" length="3.23" shape="1409.20,2400.80 1408.80,2400.00 1409.20,2399.20 1410.40,2398.40"/>
    </edge>
    <edge id=":306_10" function="internal">
        <lane id=":306_10_0" index="0" speed="6.51" length="9.03" shape="1404.80,2389.60 1405.15,2392.05 1406.20,2393.80 1407.95,2394.85 1410.40,2395.20"/>
    </edge>
    <edge id=":306_11" function="internal">
        <lane id=":306_11_0" index="0" speed="13.89" length="20.80" shape="1404.80,2389.60 1404.80,2410.40"/>
        <lane id=":306_11_1" index="1" speed="13.89" length="20.80" shape="1401.60,2389.60 1401.60,2410.40"/>
    </edge>
    <edge id=":306_13" function="internal">
        <lane id=":306_13_0" index="0" speed="9.26" length="5.01" shape="1401.60,2389.60 1400.89,2394.56"/>
    </edge>
    <edge id=":306_14" function="internal">
        <lane id=":306_14_0" index="0" speed="3.65" length="1.44" shape="1401.60,2389.60 1400.80,2390.80"/>
    </edge>
    <edge id=":306_24" function="internal">
        <lane id=":306_24_0" index="0" speed="9.26" length="14.34" shape="1400.89,2394.56 1400.85,2394.85 1398.60,2398.60 1394.85,2400.85 1389.60,2401.60"/>
    </edge>
    <edge id=":306_25" function="internal">
        <lane id=":306_25_0" index="0" speed="3.65" length="3.23" shape="1400.80,2390.80 1400.00,2391.20 1399.20,2390.80 1398.40,2389.60"/>
    </edge>
    <edge id=":306_15" function="internal">
        <lane id=":306_15_0" index="0" speed="6.51" length="9.03" shape="1389.60,2395.20 1392.05,2394.85 1393.80,2393.80 1394.85,2392.05 1395.20,2389.60"/>
    </edge>
    <edge id=":306_16" function="internal">
        <lane id=":306_16_0" index="0" speed="13.89" length="20.80" shape="1389.60,2395.20 1410.40,2395.20"/>
        <lane id=":306_16_1" index="1" speed="13.89" length="20.80" shape="1389.60,2398.40 1410.40,2398.40"/>
    </edge>
    <edge id=":306_18" function="internal">
        <lane id=":306_18_0" index="0" speed="9.26" length="5.01" shape="1389.60,2398.40 1394.56,2399.11"/>
    </edge>
    <edge id=":306_19" function="internal">
        <lane id=":306_19_0" index="0" speed="3.65" length="1.44" shape="1389.60,2398.40 1390.80,2399.20"/>
    </edge>
    <edge id=":306_26" function="internal">
        <lane id=":306_26_0" index="0" speed="9.26" length="14.34" shape="1394.56,2399.11 1394.85,2399.15 1398.60,2401.40 1400.85,2405.15 1401.60,2410.40"/>
    </edge>
    <edge id=":306_27" function="internal">
        <lane id=":306_27_0" index="0" speed="3.65" length="3.23" shape="1390.80,2399.20 1391.20,2400.00 1390.80,2400.80 1389.60,2401.60"/>
    </edge>
    <edge id=":461_0" function="internal">
        <lane id=":461_0_0" index="0" speed="3.65" length="4.67" shape="1000.00,2401.60 998.80,2400.80 998.40,2400.00 998.80,2399.20 1000.00,2398.40"/>
    </edge>
    <edge id=":467_0" function="internal">
        <lane id=":467_0_0" index="0" speed="13.89" length="20.80" shape="1395.20,2610.40 1395.20,2589.60"/>
        <lane id=":467_0_1" index="1" speed="13.89" length="20.80" shape="1398.40,2610.40 1398.40,2589.60"/>
    </edge>
    <edge id=":467_2" function="internal">
        <lane id=":467_2_0" index="0" speed="9.26" length="5.01" shape="1398.40,2610.40 1399.11,2605.44"/>
    </edge>
    <edge id=":467_3" function="internal">
        <lane id=":467_3_0" index="0" speed="3.65" length="1.44" shape="1398.40,2610.40 1399.20,2609.20"/>
    </edge>
    <edge id=":467_12" function="internal">
        <lane id=":467_12_0" index="0" speed="9.26" length="14.34" shape="1399.11,2605.44 1399.15,2605.15 1401.40,2601.40 1405.15,2599.15 1410.40,2598.40"/>
    </edge>
    <edge id=":467_13" function="internal">
        <lane id=":467_13_0" index="0" speed="3.65" length="3.23" shape="1399.20,2609.20 1400.00,2608.80 1400.80,2609.20 1401.60,2610.40"/>
    </edge>
    <edge id=":467_4" function="internal">
        <lane id=":467_4_0" index="0" speed="6.51" length="9.03" shape="1410.40,2604.80 1407.95,2605.15 1406.20,2606.20 1405.15,2607.95 1404.80,2610.40"/>
        <lane id=":467_4_1" index="1" speed="8.00" length="14.19" shape="1410.40,2601.60 1406.55,2602.15 1403.80,2603.80 1402.15,2606.55 1401.60,2610.40"/>
    </edge>
    <edge id=":467_6" function="internal">
        <lane id=":467_6_0" index="0" speed="9.26" length="19.35" shape="1410.40,2601.60 1405.15,2600.85 1401.40,2598.60 1399.15,2594.85 1398.40,2589.60"/>
    </edge>
    <edge id=":467_7" function="internal">
        <lane id=":467_7_0" index="0" speed="3.65" length="2.34" shape="1410.40,2601.60 1409.20,2600.80 1408.80,2600.00"/>
    </edge>
    <edge id=":467_14" function="internal">
        <lane id=":467_14_0" index="0" speed="3.65" length="2.34" shape="1408.80,2600.00 1409.20,2599.20 1410.40,2598.40"/>
    </edge>
    <edge id=":467_8" function="internal">
        <lane id=":467_8_0" index="0" speed="6.51" length="9.03" shape="1404.80,2589.60 1405.15,2592.05 1406.20,2593.80 1407.95,2594.85 1410.40,2595.20"/>
    </edge>
    <edge id=":467_9" function="internal">
        <lane id=":467_9_0" index="0" speed="13.89" length="20.80" shape="1404.80,2589.60 1404.80,2610.40"/>
        <lane id=":467_9_1" index="1" speed="13.89" length="20.80" shape="1401.60,2589.60 1401.60,2610.40"/>
    </edge>
    <edge id=":467_11" function="internal">
        <lane id=":467_11_0" index="0" speed="3.65" length="1.44" shape="1401.60,2589.60 1400.80,2590.80"/>
    </edge>
    <edge id=":467_15" function="internal">
        <lane id=":467_15_0" index="0" speed="3.65" length="3.23" shape="1400.80,2590.80 1400.00,2591.20 1399.20,2590.80 1398.40,2589.60"/>
    </edge>
    <edge id=":469_0" function="internal">
        <lane id=":469_0_0" index="0" speed="13.89" length="20.80" shape="1395.20,2210.40 1395.20,2189.60"/>
        <lane id=":469_0_1" index="1" speed="13.89" length="20.80" shape="1398.40,2210.40 1398.40,2189.60"/>
    </edge>
    <edge id=":469_2" function="internal">
        <lane id=":469_2_0" index="0" speed="9.26" length="5.01" shape="1398.40,2210.40 1399.11,2205.44"/>
    </edge>
    <edge id=":469_3" function="internal">
        <lane id=":469_3_0" index="0" speed="3.65" length="1.44" shape="1398.40,2210.40 1399.20,2209.20"/>
    </edge>
    <edge id=":469_12" function="internal">
        <lane id=":469_12_0" index="0" speed="9.26" length="14.34" shape="1399.11,2205.44 1399.15,2205.15 1401.40,2201.40 1405.15,2199.15 1410.40,2198.40"/>
    </edge>
    <edge id=":469_13" function="internal">
        <lane id=":469_13_0" index="0" speed="3.65" length="3.23" shape="1399.20,2209.20 1400.00,2208.80 1400.80,2209.20 1401.60,2210.40"/>
    </edge>
    <edge id=":469_4" function="internal">
        <lane id=":469_4_0" index="0" speed="6.51" length="9.03" shape="1410.40,2204.80 1407.95,2205.15 1406.20,2206.20 1405.15,2207.95 1404.80,2210.40"/>
        <lane id=":469_4_1" index="1" speed="8.00" length="14.19" shape="1410.40,2201.60 1406.55,2202.15 1403.80,2203.80 1402.15,2206.55 1401.60,2210.40"/>
    </edge>
    <edge id=":469_6" function="internal">
        <lane id=":469_6_0" index="0" speed="9.26" length="19.35" shape="1410.40,2201.60 1405.15,2200.85 1401.40,2198.60 1399.15,2194.85 1398.40,2189.60"/>
    </edge>
    <edge id=":469_7" function="internal">
        <lane id=":469_7_0" index="0" speed="3.65" length="2.34" shape="1410.40,2201.60 1409.20,2200.80 1408.80,2200.00"/>
    </edge>
    <edge id=":469_14" function="internal">
        <lane id=":469_14_0" index="0" speed="3.65" length="2.34" shape="1408.80,2200.00 1409.20,2199.20 1410.40,2198.40"/>
    </edge>
    <edge id=":469_8" function="internal">
        <lane id=":469_8_0" index="0" speed="6.51" length="9.03" shape="1404.80,2189.60 1405.15,2192.05 1406.20,2193.80 1407.95,2194.85 1410.40,2195.20"/>
    </edge>
    <edge id=":469_9" function="internal">
        <lane id=":469_9_0" index="0" speed="13.89" length="20.80" shape="1404.80,2189.60 1404.80,2210.40"/>
        <lane id=":469_9_1" index="1" speed="13.89" length="20.80" shape="1401.60,2189.60 1401.60,2210.40"/>
    </edge>
    <edge id=":469_11" function="internal">
        <lane id=":469_11_0" index="0" speed="3.65" length="1.44" shape="1401.60,2189.60 1400.80,2190.80"/>
    </edge>
    <edge id=":469_15" function="internal">
        <lane id=":469_15_0" index="0" speed="3.65" length="3.23" shape="1400.80,2190.80 1400.00,2191.20 1399.20,2190.80 1398.40,2189.60"/>
    </edge>
    <edge id=":507_0" function="internal">
        <lane id=":507_0_0" index="0" speed="3.65" length="4.67" shape="1600.00,2598.40 1601.20,2599.20 1601.60,2600.00 1601.20,2600.80 1600.00,2601.60"/>
    </edge>
    <edge id=":785_0" function="internal">
        <lane id=":785_0_0" index="0" speed="6.51" length="9.03" shape="1395.20,2010.40 1394.85,2007.95 1393.80,2006.20 1392.05,2005.15 1389.60,2004.80"/>
    </edge>
    <edge id=":785_1" function="internal">
        <lane id=":785_1_0" index="0" speed="13.89" length="20.80" shape="1395.20,2010.40 1395.20,1989.60"/>
        <lane id=":785_1_1" index="1" speed="13.89" length="20.80" shape="1398.40,2010.40 1398.40,1989.60"/>
    </edge>
    <edge id=":785_3" function="internal">
        <lane id=":785_3_0" index="0" speed="9.26" length="5.01" shape="1398.40,2010.40 1399.11,2005.44"/>
    </edge>
    <edge id=":785_4" function="internal">
        <lane id=":785_4_0" index="0" speed="3.65" length="1.44" shape="1398.40,2010.40 1399.20,2009.20"/>
    </edge>
    <edge id=":785_20" function="internal">
        <lane id=":785_20_0" index="0" speed="9.26" length="14.34" shape="1399.11,2005.44 1399.15,2005.15 1401.40,2001.40 1405.15,1999.15 1410.40,1998.40"/>
    </edge>
    <edge id=":785_21" function="internal">
        <lane id=":785_21_0" index="0" speed="3.65" length="3.23" shape="1399.20,2009.20 1400.00,2008.80 1400.80,2009.20 1401.60,2010.40"/>
    </edge>
    <edge id=":785_5" function="internal">
        <lane id=":785_5_0" index="0" speed="6.51" length="9.03" shape="1410.40,2004.80 1407.95,2005.15 1406.20,2006.20 1405.15,2007.95 1404.80,2010.40"/>
    </edge>
    <edge id=":785_6" function="internal">
        <lane id=":785_6_0" index="0" speed="13.89" length="20.80" shape="1410.40,2004.80 1389.60,2004.80"/>
        <lane id=":785_6_1" index="1" speed="13.89" length="20.80" shape="1410.40,2001.60 1389.60,2001.60"/>
    </edge>
    <edge id=":785_8" function="internal">
        <lane id=":785_8_0" index="0" speed="9.26" length="5.01" shape="1410.40,2001.60 1405.44,2000.89"/>
    </edge>
    <edge id=":785_9" function="internal">
        <lane id=":785_9_0" index="0" speed="3.65" length="1.44" shape="1410.40,2001.60 1409.20,2000.80"/>
    </edge>
    <edge id=":785_22" function="internal">
        <lane id=":785_22_0" index="0" speed="9.26" length="14.34" shape="1405.44,2000.89 1405.15,2000.85 1401.40,1998.60 1399.15,1994.85 1398.40,1989.60"/>
    </edge>
    <edge id=":785_23" function="internal">
        <lane id=":785_23_0" index="0" speed="3.65" length="3.23" shape="1409.20,2000.80 1408.80,2000.00 1409.20,1999.20 1410.40,1998.40"/>
    </edge>
    <edge id=":785_10" function="internal">
        <lane id=":785_10_0" index="0" speed="6.51" length="9.03" shape="1404.80,1989.60 1405.15,1992.05 1406.20,1993.80 1407.95,1994.85 1410.40,1995.20"/>
    </edge>
    <edge id=":785_11" function="internal">
        <lane id=":785_11_0" index="0" speed="13.89" length="20.80" shape="1404.80,1989.60 1404.80,2010.40"/>
        <lane id=":785_11_1" index="1" speed="13.89" length="20.80" shape="1401.60,1989.60 1401.60,2010.40"/>
    </edge>
    <edge id=":785_13" function="internal">
        <lane id=":785_13_0" index="0" speed="9.26" length="5.01" shape="1401.60,1989.60 1400.89,1994.56"/>
    </edge>
    <edge id=":785_14" function="internal">
        <lane id=":785_14_0" index="0" speed="3.65" length="1.44" shape="1401.60,1989.60 1400.80,1990.80"/>
    </edge>
    <edge id=":785_24" function="internal">
        <lane id=":785_24_0" index="0" speed="9.26" length="14.34" shape="1400.89,1994.56 1400.85,1994.85 1398.60,1998.60 1394.85,2000.85 1389.60,2001.60"/>
    </edge>
    <edge id=":785_25" function="internal">
        <lane id=":785_25_0" index="0" speed="3.65" length="3.23" shape="1400.80,1990.80 1400.00,1991.20 1399.20,1990.80 1398.40,1989.60"/>
    </edge>
    <edge id=":785_15" function="internal">
        <lane id=":785_15_0" index="0" speed="6.51" length="9.03" shape="1389.60,1995.20 1392.05,1994.85 1393.80,1993.80 1394.85,1992.05 1395.20,1989.60"/>
    </edge>
    <edge id=":785_16" function="internal">
        <lane id=":785_16_0" index="0" speed="13.89" length="20.80" shape="1389.60,1995.20 1410.40,1995.20"/>
        <lane id=":785_16_1" index="1" speed="13.89" length="20.80" shape="1389.60,1998.40 1410.40,1998.40"/>
    </edge>
    <edge id=":785_18" function="internal">
        <lane id=":785_18_0" index="0" speed="9.26" length="5.01" shape="1389.60,1998.40 1394.56,1999.11"/>
    </edge>
    <edge id=":785_19" function="internal">
        <lane id=":785_19_0" index="0" speed="3.65" length="1.44" shape="1389.60,1998.40 1390.80,1999.20"/>
    </edge>
    <edge id=":785_26" function="internal">
        <lane id=":785_26_0" index="0" speed="9.26" length="14.34" shape="1394.56,1999.11 1394.85,1999.15 1398.60,2001.40 1400.85,2005.15 1401.60,2010.40"/>
    </edge>
    <edge id=":785_27" function="internal">
        <lane id=":785_27_0" index="0" speed="3.65" length="3.23" shape="1390.80,1999.20 1391.20,2000.00 1390.80,2000.80 1389.60,2001.60"/>
    </edge>

    <edge id="-1069" from="1068" to="467" priority="-1">
        <lane id="-1069_0" index="0" speed="13.89" length="389.60" shape="1395.20,3000.00 1395.20,2610.40"/>
        <lane id="-1069_1" index="1" speed="13.89" length="389.60" shape="1398.40,3000.00 1398.40,2610.40"/>
    </edge>
    <edge id="-1072" from="1071" to="785" priority="-1">
        <lane id="-1072_0" index="0" speed="13.89" length="189.60" shape="1404.80,1800.00 1404.80,1989.60"/>
        <lane id="-1072_1" index="1" speed="13.89" length="189.60" shape="1401.60,1800.00 1401.60,1989.60"/>
    </edge>
    <edge id="-1439" from="1438" to="785" priority="-1">
        <lane id="-1439_0" index="0" speed="13.89" length="183.20" shape="1206.40,1995.20 1389.60,1995.20"/>
        <lane id="-1439_1" index="1" speed="13.89" length="183.20" shape="1206.40,1998.40 1389.60,1998.40"/>
    </edge>
    <edge id="-1443" from="1442" to="785" priority="-1">
        <lane id="-1443_0" index="0" speed="13.89" length="183.20" shape="1593.60,2004.80 1410.40,2004.80"/>
        <lane id="-1443_1" index="1" speed="13.89" length="183.20" shape="1593.60,2001.60 1410.40,2001.60"/>
    </edge>
    <edge id="-1448" from="1447" to="469" priority="-1">
        <lane id="-1448_0" index="0" speed="13.89" length="183.20" shape="1593.60,2204.80 1410.40,2204.80"/>
        <lane id="-1448_1" index="1" speed="13.89" length="183.20" shape="1593.60,2201.60 1410.40,2201.60"/>
    </edge>
    <edge id="-1916" from="1572" to="1438" priority="-1">
        <lane id="-1916_0" index="0" speed="13.89" length="393.60" shape="1204.80,1600.00 1204.80,1993.60"/>
        <lane id="-1916_1" index="1" speed="13.89" length="393.60" shape="1201.60,1600.00 1201.60,1993.60"/>
    </edge>
    <edge id="-1918" from="1447" to="1442" priority="-1">
        <lane id="-1918_0" index="0" speed="13.89" length="187.20" shape="1595.20,2193.60 1595.20,2006.40"/>
        <lane id="-1918_1" index="1" speed="13.89" length="187.20" shape="1598.40,2193.60 1598.40,2006.40"/>
    </edge>
    <edge id="-307" from="306" to="269" priority="-1">
        <lane id="-307_0" index="0" speed="13.89" length="389.60" shape="1410.40,2395.20 1800.00,2395.20"/>
        <lane id="-307_1" index="1" speed="13.89" length="389.60" shape="1410.40,2398.40 1800.00,2398.40"/>
    </edge>
    <edge id="-462" from="461" to="306" priority="-1">
        <lane id="-462_0" index="0" speed="13.89" length="389.60" shape="1000.00,2395.20 1389.60,2395.20"/>
        <lane id="-462_1" index="1" speed="13.89" length="389.60" shape="1000.00,2398.40 1389.60,2398.40"/>
    </edge>
    <edge id="-468" from="467" to="306" priority="-1">
        <lane id="-468_0" index="0" speed="13.89" length="179.20" shape="1395.20,2589.60 1395.20,2410.40"/>
        <lane id="-468_1" index="1" speed="13.89" length="179.20" shape="1398.40,2589.60 1398.40,2410.40"/>
    </edge>
    <edge id="-470" from="469" to="306" priority="-1">
        <lane id="-470_0" index="0" speed="13.89" length="179.20" shape="1404.80,2210.40 1404.80,2389.60"/>
        <lane id="-470_1" index="1" speed="13.89" length="179.20" shape="1401.60,2210.40 1401.60,2389.60"/>
    </edge>
    <edge id="-508" from="507" to="467" priority="-1">
        <lane id="-508_0" index="0" speed="13.89" length="189.60" shape="1600.00,2604.80 1410.40,2604.80"/>
        <lane id="-508_1" index="1" speed="13.89" length="189.60" shape="1600.00,2601.60 1410.40,2601.60"/>
    </edge>
    <edge id="-786" from="785" to="469" priority="-1">
        <lane id="-786_0" index="0" speed="13.89" length="179.20" shape="1404.80,2010.40 1404.80,2189.60"/>
        <lane id="-786_1" index="1" speed="13.89" length="179.20" shape="1401.60,2010.40 1401.60,2189.60"/>
    </edge>
    <edge id="1069" from="467" to="1068" priority="-1">
        <lane id="1069_0" index="0" speed="13.89" length="389.60" shape="1404.80,2610.40 1404.80,3000.00"/>
        <lane id="1069_1" index="1" speed="13.89" length="389.60" shape="1401.60,2610.40 1401.60,3000.00"/>
    </edge>
    <edge id="1072" from="785" to="1071" priority="-1">
        <lane id="1072_0" index="0" speed="13.89" length="189.60" shape="1395.20,1989.60 1395.20,1800.00"/>
        <lane id="1072_1" index="1" speed="13.89" length="189.60" shape="1398.40,1989.60 1398.40,1800.00"/>
    </edge>
    <edge id="1439" from="785" to="1438" priority="-1">
        <lane id="1439_0" index="0" speed="13.89" length="183.20" shape="1389.60,2004.80 1206.40,2004.80"/>
        <lane id="1439_1" index="1" speed="13.89" length="183.20" shape="1389.60,2001.60 1206.40,2001.60"/>
    </edge>
    <edge id="1443" from="785" to="1442" priority="-1">
        <lane id="1443_0" index="0" speed="13.89" length="183.20" shape="1410.40,1995.20 1593.60,1995.20"/>
        <lane id="1443_1" index="1" speed="13.89" length="183.20" shape="1410.40,1998.40 1593.60,1998.40"/>
    </edge>
    <edge id="1448" from="469" to="1447" priority="-1">
        <lane id="1448_0" index="0" speed="13.89" length="183.20" shape="1410.40,2195.20 1593.60,2195.20"/>
        <lane id="1448_1" index="1" speed="13.89" length="183.20" shape="1410.40,2198.40 1593.60,2198.40"/>
    </edge>
    <edge id="1916" from="1438" to="1572" priority="-1">
        <lane id="1916_0" index="0" speed="13.89" length="393.60" shape="1195.20,1993.60 1195.20,1600.00"/>
        <lane id="1916_1" index="1" speed="13.89" length="393.60" shape="1198.40,1993.60 1198.40,1600.00"/>
    </edge>
    <edge id="1918" from="1442" to="1447" priority="-1">
        <lane id="1918_0" index="0" speed="13.89" length="187.20" shape="1604.80,2006.40 1604.80,2193.60"/>
        <lane id="1918_1" index="1" speed="13.89" length="187.20" shape="1601.60,2006.40 1601.60,2193.60"/>
    </edge>
    <edge id="307" from="269" to="306" priority="-1">
        <lane id="307_0" index="0" speed="13.89" length="389.60" shape="1800.00,2404.80 1410.40,2404.80"/>
        <lane id="307_1" index="1" speed="13.89" length="389.60" shape="1800.00,2401.60 1410.40,2401.60"/>
    </edge>
    <edge id="462" from="306" to="461" priority="-1">
        <lane id="462_0" index="0" speed="13.89" length="389.60" shape="1389.60,2404.80 1000.00,2404.80"/>
        <lane id="462_1" index="1" speed="13.89" length="389.60" shape="1389.60,2401.60 1000.00,2401.60"/>
    </edge>
    <edge id="468" from="306" to="467" priority="-1">
        <lane id="468_0" index="0" speed="13.89" length="179.20" shape="1404.80,2410.40 1404.80,2589.60"/>
        <lane id="468_1" index="1" speed="13.89" length="179.20" shape="1401.60,2410.40 1401.60,2589.60"/>
    </edge>
    <edge id="470" from="306" to="469" priority="-1">
        <lane id="470_0" index="0" speed="13.89" length="179.20" shape="1395.20,2389.60 1395.20,2210.40"/>
        <lane id="470_1" index="1" speed="13.89" length="179.20" shape="1398.40,2389.60 1398.40,2210.40"/>
    </edge>
    <edge id="508" from="467" to="507" priority="-1">
        <lane id="508_0" index="0" speed="13.89" length="189.60" shape="1410.40,2595.20 1600.00,2595.20"/>
        <lane id="508_1" index="1" speed="13.89" length="189.60" shape="1410.40,2598.40 1600.00,2598.40"/>
    </edge>
    <edge id="786" from="469" to="785" priority="-1">
        <lane id="786_0" index="0" speed="13.89" length="179.20" shape="1395.20,2189.60 1395.20,2010.40"/>
        <lane id="786_1" index="1" speed="13.89" length="179.20" shape="1398.40,2189.60 1398.40,2010.40"/>
    </edge>

    <tlLogic id="306" type="static" programID="0" offset="0">
        <phase duration="42" state="GGGggrrrrrGGGggrrrrr"/>
        <phase duration="3"  state="yyyyyrrrrryyyyyrrrrr"/>
        <phase duration="42" state="rrrrrGGGggrrrrrGGGgg"/>
        <phase duration="3"  state="rrrrryyyyyrrrrryyyyy"/>
    </tlLogic>
    <tlLogic id="467" type="static" programID="0" offset="0">
        <phase duration="42" state="GGggrrrrGGGg"/>
        <phase duration="3"  state="yyyyrrrrGyyy"/>
        <phase duration="42" state="rrrrGGGgGrrr"/>
        <phase duration="3"  state="rrrryyyyGrrr"/>
    </tlLogic>
    <tlLogic id="469" type="static" programID="0" offset="0">
        <phase duration="42" state="GGggrrrrGGGg"/>
        <phase duration="3"  state="yyyyrrrrGyyy"/>
        <phase duration="42" state="rrrrGGGgGrrr"/>
        <phase duration="3"  state="rrrryyyyGrrr"/>
    </tlLogic>
    <tlLogic id="785" type="static" programID="0" offset="0">
        <phase duration="42" state="GGGggrrrrrGGGggrrrrr"/>
        <phase duration="3"  state="yyyyyrrrrryyyyyrrrrr"/>
        <phase duration="42" state="rrrrrGGGggrrrrrGGGgg"/>
        <phase duration="3"  state="rrrrryyyyyrrrrryyyyy"/>
    </tlLogic>

    <junction id="1068" type="dead_end" x="1400.00" y="3000.00" incLanes="1069_0 1069_1" intLanes="" shape="1400.00,3000.00 1406.40,3000.00 1400.00,3000.00"/>
    <junction id="1071" type="priority" x="1400.00" y="1800.00" incLanes="1072_0 1072_1" intLanes=":1071_0_0" shape="1400.00,1800.00 1393.60,1800.00 1400.00,1800.00">
        <request index="0" response="0" foes="0" cont="0"/>
    </junction>
    <junction id="1438" type="priority" x="1200.00" y="2000.00" incLanes="1439_0 1439_1 -1916_0 -1916_1" intLanes=":1438_0_0 :1438_0_1 :1438_2_0 :1438_2_1" shape="1206.40,2006.40 1206.40,1993.60 1193.60,1993.60 1193.96,1997.51 1195.02,2000.71 1196.80,2003.20 1199.29,2004.98 1202.49,2006.04">
        <request index="0" response="0000" foes="0000" cont="0"/>
        <request index="1" response="0000" foes="0000" cont="0"/>
        <request index="2" response="0000" foes="0000" cont="0"/>
        <request index="3" response="0000" foes="0000" cont="0"/>
    </junction>
    <junction id="1442" type="priority" x="1600.00" y="2000.00" incLanes="-1918_0 -1918_1 1443_0 1443_1" intLanes=":1442_0_0 :1442_0_1 :1442_2_0 :1442_2_1" shape="1593.60,2006.40 1606.40,2006.40 1606.04,2002.49 1604.98,1999.29 1603.20,1996.80 1600.71,1995.02 1597.51,1993.96 1593.60,1993.60">
        <request index="0" response="0000" foes="0000" cont="0"/>
        <request index="1" response="0000" foes="0000" cont="0"/>