<?xml version="1.0" encoding="UTF-8"?>

<!-- generated on 2025-03-09 18:38:14 by Eclipse SUMO netedit Version 1.20.0
<configuration xmlns:xsi="http://www.w3.org/2001/XMLSchema-instance" xsi:noNamespaceSchemaLocation="http://sumo.dlr.de/xsd/neteditConfiguration.xsd">

    <input>
        <sumo-net-file value="/Volumes/Crucial_X6/projects/marl_data/robust/random_grid_subnetworks/random_subnetwork_2.net.xml"/>
    </input>

    <output>
        <output-file value="/Volumes/Crucial_X6/projects/marl_data/robust/random_grid_subnetworks/random_subnetwork_2.net.xml"/>
    </output>

    <processing>
        <geometry.min-radius.fix.railways value="false"/>
        <geometry.max-grade.fix value="false"/>
        <offset.disable-normalization value="true"/>
        <lefthand value="0"/>
    </processing>

    <junctions>
        <no-turnarounds value="true"/>
        <junctions.corner-detail value="5"/>
        <junctions.limit-turn-speed value="5.50"/>
        <rectangular-lane-cut value="0"/>
    </junctions>

    <pedestrian>
        <walkingareas value="0"/>
    </pedestrian>

</configuration>
-->

<net version="1.20" junctionCornerDetail="5" limitTurnSpeed="5.50" xmlns:xsi="http://www.w3.org/2001/XMLSchema-instance" xsi:noNamespaceSchemaLocation="http://sumo.dlr.de/xsd/net_file.xsd">

    <location netOffset="2000.00,1800.00" convBoundary="800.00,800.00,2800.00,2600.00" origBoundary="-2000.00,-1800.00,800.00,1200.00" projParameter="!"/>

    <edge id=":1_0" function="internal">
        <lane id=":1_0_0" index="0" speed="6.51" length="9.03" shape="1995.20,1810.40 1994.85,1807.95 1993.80,1806.20 1992.05,1805.15 1989.60,1804.80"/>
    </edge>
    <edge id=":1_1" function="internal">
        <lane id=":1_1_0" index="0" speed="13.89" length="20.80" shape="1995.20,1810.40 1995.20,1789.60"/>
        <lane id=":1_1_1" index="1" speed="13.89" length="20.80" shape="1998.40,1810.40 1998.40,1789.60"/>
    </edge>
    <edge id=":1_3" function="internal">
        <lane id=":1_3_0" index="0" speed="9.26" length="5.01" shape="1998.40,1810.40 1999.11,1805.44"/>
    </edge>
    <edge id=":1_4" function="internal">
        <lane id=":1_4_0" index="0" speed="3.65" length="1.44" shape="1998.40,1810.40 1999.20,1809.20"/>
    </edge>
    <edge id=":1_20" function="internal">
        <lane id=":1_20_0" index="0" speed="9.26" length="14.34" shape="1999.11,1805.44 1999.15,1805.15 2001.40,1801.40 2005.15,1799.15 2010.40,1798.40"/>
    </edge>
    <edge id=":1_21" function="internal">
        <lane id=":1_21_0" index="0" speed="3.65" length="3.23" shape="1999.20,1809.20 2000.00,1808.80 2000.80,1809.20 2001.60,1810.40"/>
    </edge>
    <edge id=":1_5" function="internal">
        <lane id=":1_5_0" index="0" speed="6.51" length="9.03" shape="2010.40,1804.80 2007.95,1805.15 2006.20,1806.20 2005.15,1807.95 2004.80,1810.40"/>
    </edge>
    <edge id=":1_6" function="internal">
        <lane id=":1_6_0" index="0" speed="13.89" length="20.80" shape="2010.40,1804.80 1989.60,1804.80"/>
        <lane id=":1_6_1" index="1" speed="13.89" length="20.80" shape="2010.40,1801.60 1989.60,1801.60"/>
    </edge>
    <edge id=":1_8" function="internal">
        <lane id=":1_8_0" index="0" speed="9.26" length="5.01" shape="2010.40,1801.60 2005.44,1800.89"/>
    </edge>
    <edge id=":1_9" function="internal">
        <lane id=":1_9_0" index="0" speed="3.65" length="1.44" shape="2010.40,1801.60 2009.20,1800.80"/>
    </edge>
    <edge id=":1_22" function="internal">
        <lane id=":1_22_0" index="0" speed="9.26" length="14.34" shape="2005.44,1800.89 2005.15,1800.85 2001.40,1798.60 1999.15,1794.85 1998.40,1789.60"/>
    </edge>
    <edge id=":1_23" function="internal">
        <lane id=":1_23_0" index="0" speed="3.65" length="3.23" shape="2009.20,1800.80 2008.80,1800.00 2009.20,1799.20 2010.40,1798.40"/>
    </edge>
    <edge id=":1_10" function="internal">
        <lane id=":1_10_0" index="0" speed="6.51" length="9.03" shape="2004.80,1789.60 2005.15,1792.05 2006.20,1793.80 2007.95,1794.85 2010.40,1795.20"/>
    </edge>
    <edge id=":1_11" function="internal">
        <lane id=":1_11_0" index="0" speed="13.89" length="20.80" shape="2004.80,1789.60 2004.80,1810.40"/>
        <lane id=":1_11_1" index="1" speed="13.89" length="20.80" shape="2001.60,1789.60 2001.60,1810.40"/>
    </edge>
    <edge id=":1_13" function="internal">
        <lane id=":1_13_0" index="0" speed="9.26" length="5.01" shape="2001.60,1789.60 2000.89,1794.56"/>
    </edge>
    <edge id=":1_14" function="internal">
        <lane id=":1_14_0" index="0" speed="3.65" length="1.44" shape="2001.60,1789.60 2000.80,1790.80"/>
    </edge>
    <edge id=":1_24" function="internal">
        <lane id=":1_24_0" index="0" speed="9.26" length="14.34" shape="2000.89,1794.56 2000.85,1794.85 1998.60,1798.60 1994.85,1800.85 1989.60,1801.60"/>
    </edge>
    <edge id=":1_25" function="internal">
        <lane id=":1_25_0" index="0" speed="3.65" length="3.23" shape="2000.80,1790.80 2000.00,1791.20 1999.20,1790.80 1998.40,1789.60"/>
    </edge>
    <edge id=":1_15" function="internal">
        <lane id=":1_15_0" index="0" speed="6.51" length="9.03" shape="1989.60,1795.20 1992.05,1794.85 1993.80,1793.80 1994.85,1792.05 1995.20,1789.60"/>
    </edge>
    <edge id=":1_16" function="internal">
        <lane id=":1_16_0" index="0" speed="13.89" length="20.80" shape="1989.60,1795.20 2010.40,1795.20"/>
        <lane id=":1_16_1" index="1" speed="13.89" length="20.80" shape="1989.60,1798.40 2010.40,1798.40"/>
    </edge>
    <edge id=":1_18" function="internal">
        <lane id=":1_18_0" index="0" speed="9.26" length="5.01" shape="1989.60,1798.40 1994.56,1799.11"/>
    </edge>
    <edge id=":1_19" function="internal">
        <lane id=":1_19_0" index="0" speed="3.65" length="1.44" shape="1989.60,1798.40 1990.80,1799.20"/>
    </edge>
    <edge id=":1_26" function="internal">
        <lane id=":1_26_0" index="0" speed="9.26" length="14.34" shape="1994.56,1799.11 1994.85,1799.15 1998.60,1801.40 2000.85,1805.15 2001.60,1810.40"/>
    </edge>
    <edge id=":1_27" function="internal">
        <lane id=":1_27_0" index="0" speed="3.65" length="3.23" shape="1990.80,1799.20 1991.20,1800.00 1990.80,1800.80 1989.60,1801.60"/>
    </edge>
    <edge id=":10_0" function="internal">
        <lane id=":10_0_0" index="0" speed="13.89" length="20.80" shape="1795.20,1810.40 1795.20,1789.60"/>
        <lane id=":10_0_1" index="1" speed="13.89" length="20.80" shape="1798.40,1810.40 1798.40,1789.60"/>
    </edge>
    <edge id=":10_2" function="internal">
        <lane id=":10_2_0" index="0" speed="9.26" length="5.01" shape="1798.40,1810.40 1799.11,1805.44"/>
    </edge>
    <edge id=":10_3" function="internal">
        <lane id=":10_3_0" index="0" speed="3.65" length="1.44" shape="1798.40,1810.40 1799.20,1809.20"/>
    </edge>
    <edge id=":10_12" function="internal">
        <lane id=":10_12_0" index="0" speed="9.26" length="14.34" shape="1799.11,1805.44 1799.15,1805.15 1801.40,1801.40 1805.15,1799.15 1810.40,1798.40"/>
    </edge>
    <edge id=":10_13" function="internal">
        <lane id=":10_13_0" index="0" speed="3.65" length="3.23" shape="1799.20,1809.20 1800.00,1808.80 1800.80,1809.20 1801.60,1810.40"/>
    </edge>
    <edge id=":10_4" function="internal">
        <lane id=":10_4_0" index="0" speed="6.51" length="9.03" shape="1810.40,1804.80 1807.95,1805.15 1806.20,1806.20 1805.15,1807.95 1804.80,1810.40"/>
        <lane id=":10_4_1" index="1" speed="8.00" length="14.19" shape="1810.40,1801.60 1806.55,1802.15 1803.80,1803.80 1802.15,1806.55 1801.60,1810.40"/>
    </edge>
    <edge id=":10_6" function="internal">
        <lane id=":10_6_0" index="0" speed="9.26" length="19.35" shape="1810.40,1801.60 1805.15,1800.85 1801.40,1798.60 1799.15,1794.85 1798.40,1789.60"/>
    </edge>
    <edge id=":10_7" function="internal">
        <lane id=":10_7_0" index="0" speed="3.65" length="2.34" shape="1810.40,1801.60 1809.20,1800.80 1808.80,1800.00"/>
    </edge>
    <edge id=":10_14" function="internal">
        <lane id=":10_14_0" index="0" speed="3.65" length="2.34" shape="1808.80,1800.00 1809.20,1799.20 1810.40,1798.40"/>
    </edge>
    <edge id=":10_8" function="internal">
        <lane id=":10_8_0" index="0" speed="6.51" length="9.03" shape="1804.80,1789.60 1805.15,1792.05 1806.20,1793.80 1807.95,1794.85 1810.40,1795.20"/>
    </edge>
    <edge id=":10_9" function="internal">
        <lane id=":10_9_0" index="0" speed="13.89" length="20.80" shape="1804.80,1789.60 1804.80,1810.40"/>
        <lane id=":10_9_1" index="1" speed="13.89" length="20.80" shape="1801.60,1789.60 1801.60,1810.40"/>
    </edge>
    <edge id=":10_11" function="internal">
        <lane id=":10_11_0" index="0" speed="3.65" length="1.44" shape="1801.60,1789.60 1800.80,1790.80"/>
    </edge>
    <edge id=":10_15" function="internal">
        <lane id=":10_15_0" index="0" speed="3.65" length="3.23" shape="1800.80,1790.80 1800.00,1791.20 1799.20,1790.80 1798.40,1789.60"/>
    </edge>
    <edge id=":1101_0" function="internal">
        <lane id=":1101_0_0" index="0" speed="8.96" length="18.06" shape="1404.80,1593.60 1404.10,1598.50 1402.00,1602.00 1398.50,1604.10 1393.60,1604.80"/>
        <lane id=":1101_0_1" index="1" speed="7.66" length="12.90" shape="1401.60,1593.60 1401.10,1597.10 1399.60,1599.60 1397.10,1601.10 1393.60,1601.60"/>
    </edge>
    <edge id=":1101_2" function="internal">
        <lane id=":1101_2_0" index="0" speed="3.90" length="2.58" shape="1393.60,1595.20 1394.30,1595.10 1394.80,1594.80 1395.10,1594.30 1395.20,1593.60"/>
        <lane id=":1101_2_1" index="1" speed="6.08" length="7.74" shape="1393.60,1598.40 1395.70,1598.10 1397.20,1597.20 1398.10,1595.70 1398.40,1593.60"/>
    </edge>
    <edge id=":1221_0" function="internal">
        <lane id=":1221_0_0" index="0" speed="3.65" length="4.67" shape="1400.00,1601.60 1398.80,1600.80 1398.40,1600.00 1398.80,1599.20 1400.00,1598.40"/>
    </edge>
    <edge id=":14_0" function="internal">
        <lane id=":14_0_0" index="0" speed="13.89" length="20.80" shape="2010.40,2204.80 1989.60,2204.80"/>
        <lane id=":14_0_1" index="1" speed="13.89" length="20.80" shape="2010.40,2201.60 1989.60,2201.60"/>
    </edge>
    <edge id=":14_2" function="internal">
        <lane id=":14_2_0" index="0" speed="9.26" length="5.01" shape="2010.40,2201.60 2005.44,2200.89"/>
    </edge>
    <edge id=":14_3" function="internal">
        <lane id=":14_3_0" index="0" speed="3.65" length="1.44" shape="2010.40,2201.60 2009.20,2200.80"/>
    </edge>
    <edge id=":14_12" function="internal">
        <lane id=":14_12_0" index="0" speed="9.26" length="14.34" shape="2005.44,2200.89 2005.15,2200.85 2001.40,2198.60 1999.15,2194.85 1998.40,2189.60"/>
    </edge>
    <edge id=":14_13" function="internal">
        <lane id=":14_13_0" index="0" speed="3.65" length="3.23" shape="2009.20,2200.80 2008.80,2200.00 2009.20,2199.20 2010.40,2198.40"/>
    </edge>
    <edge id=":14_4" function="internal">
        <lane id=":14_4_0" index="0" speed="6.51" length="9.03" shape="2004.80,2189.60 2005.15,2192.05 2006.20,2193.80 2007.95,2194.85 2010.40,2195.20"/>
        <lane id=":14_4_1" index="1" speed="8.00" length="14.19" shape="2001.60,2189.60 2002.15,2193.45 2003.80,2196.20 2006.55,2197.85 2010.40,2198.40"/>
    </edge>
    <edge id=":14_6" function="internal">
        <lane id=":14_6_0" index="0" speed="9.26" length="19.35" shape="2001.60,2189.60 2000.85,2194.85 1998.60,2198.60 1994.85,2200.85 1989.60,2201.60"/>
    </edge>
    <edge id=":14_7" function="internal">
        <lane id=":14_7_0" index="0" speed="3.65" length="2.34" shape="2001.60,2189.60 2000.80,2190.80 2000.00,2191.20"/>
    </edge>
    <edge id=":14_14" function="internal">
        <lane id=":14_14_0" index="0" speed="3.65" length="2.34" shape="2000.00,2191.20 1999.20,2190.80 1998.40,2189.60"/>
    </edge>
    <edge id=":14_8" function="internal">
        <lane id=":14_8_0" index="0" speed="6.51" length="9.03" shape="1989.60,2195.20 1992.05,2194.85 1993.80,2193.80 1994.85,2192.05 1995.20,2189.60"/>
    </edge>
    <edge id=":14_9" function="internal">
        <lane id=":14_9_0" index="0" speed="13.89" length="20.80" shape="1989.60,2195.20 2010.40,2195.20"/>
        <lane id=":14_9_1" index="1" speed="13.89" length="20.80" shape="1989.60,2198.40 2010.40,2198.40"/>
    </edge>
    <edge id=":14_11" function="internal">
        <lane id=":14_11_0" index="0" speed="3.65" length="1.44" shape="1989.60,2198.40 1990.80,2199.20"/>
    </edge>
    <edge id=":14_15" function="internal">
        <lane id=":14_15_0" index="0" speed="3.65" length="3.23" shape="1990.80,2199.20 1991.20,2200.00 1990.80,2200.80 1989.60,2201.60"/>
    </edge>
    <edge id=":1438_0" function="internal">
        <lane id=":1438_0_0" index="0" speed="8.96" length="18.06" shape="1206.40,2004.80 1201.50,2004.10 1198.00,2002.00 1195.90,1998.50 1195.20,1993.60"/>
        <lane id=":1438_0_1" index="1" speed="7.66" length="12.90" shape="1206.40,2001.60 1202.90,2001.10 1200.40,1999.60 1198.90,1997.10 1198.40,1993.60"/>
    </edge>
    <edge id=":1438_2" function="internal">
        <lane id=":1438_2_0" index="0" speed="3.90" length="2.58" shape="1204.80,1993.60 1204.90,1994.30 1205.20,1994.80 1205.70,1995.10 1206.40,1995.20"/>
        <lane id=":1438_2_1" index="1" speed="6.08" length="7.74" shape="1201.60,1993.60 1201.90,1995.70 1202.80,1997.20 1204.30,1998.10 1206.40,1998.40"/>
    </edge>
    <edge id=":153_0" function="internal">
        <lane id=":153_0_0" index="0" speed="13.89" length="20.80" shape="1810.40,1404.80 1789.60,1404.80"/>
        <lane id=":153_0_1" index="1" speed="13.89" length="20.80" shape="1810.40,1401.60 1789.60,1401.60"/>
    </edge>
    <edge id=":153_2" function="internal">
        <lane id=":153_2_0" index="0" speed="9.26" length="5.01" shape="1810.40,1401.60 1805.44,1400.89"/>
    </edge>
    <edge id=":153_3" function="internal">
        <lane id=":153_3_0" index="0" speed="3.65" length="1.44" shape="1810.40,1401.60 1809.20,1400.80"/>
    </edge>
    <edge id=":153_12" function="internal">
        <lane id=":153_12_0" index="0" speed="9.26" length="14.34" shape="1805.44,1400.89 1805.15,1400.85 1801.40,1398.60 1799.15,1394.85 1798.40,1389.60"/>
    </edge>
    <edge id=":153_13" function="internal">
        <lane id=":153_13_0" index="0" speed="3.65" length="3.23" shape="1809.20,1400.80 1808.80,1400.00 1809.20,1399.20 1810.40,1398.40"/>
    </edge>
    <edge id=":153_4" function="internal">
        <lane id=":153_4_0" index="0" speed="6.51" length="9.03" shape="1804.80,1389.60 1805.15,1392.05 1806.20,1393.80 1807.95,1394.85 1810.40,1395.20"/>
        <lane id=":153_4_1" index="1" speed="8.00" length="14.19" shape="1801.60,1389.60 1802.15,1393.45 1803.80,1396.20 1806.55,1397.85 1810.40,1398.40"/>
    </edge>
    <edge id=":153_6" function="internal">
        <lane id=":153_6_0" index="0" speed="9.26" length="19.35" shape="1801.60,1389.60 1800.85,1394.85 1798.60,1398.60 1794.85,1400.85 1789.60,1401.60"/>
    </edge>
    <edge id=":153_7" function="internal">
        <lane id=":153_7_0" index="0" speed="3.65" length="2.34" shape="1801.60,1389.60 1800.80,1390.80 1800.00,1391.20"/>
    </edge>
    <edge id=":153_14" function="internal">
        <lane id=":153_14_0" index="0" speed="3.65" length="2.34" shape="1800.00,1391.20 1799.20,1390.80 1798.40,1389.60"/>
    </edge>
    <edge id=":153_8" function="internal">
        <lane id=":153_8_0" index="0" speed="6.51" length="9.03" shape="1789.60,1395.20 1792.05,1394.85 1793.80,1393.80 1794.85,1392.05 1795.20,1389.60"/>
    </edge>
    <edge id=":153_9" function="internal">
        <lane id=":153_9_0" index="0" speed="13.89" length="20.80" shape="1789.60,1395.20 1810.40,1395.20"/>
        <lane id=":153_9_1" index="1" speed="13.89" length="20.80" shape="1789.60,1398.40 1810.40,1398.40"/>
    </edge>
    <edge id=":153_11" function="internal">
        <lane id=":153_11_0" index="0" speed="3.65" length="1.44" shape="1789.60,1398.40 1790.80,1399.20"/>
    </edge>
    <edge id=":153_15" function="internal">
        <lane id=":153_15_0" index="0" speed="3.65" length="3.23" shape="1790.80,1399.20 1791.20,1400.00 1790.80,1400.80 1789.60,1401.60"/>
    </edge>
    <edge id=":1572_0" function="internal">
        <lane id=":1572_0_0" index="0" speed="6.51" length="9.03" shape="1195.20,1610.40 1194.85,1607.95 1193.80,1606.20 1192.05,1605.15 1189.60,1604.80"/>
        <lane id=":1572_0_1" index="1" speed="8.00" length="14.19" shape="1198.40,1610.40 1197.85,1606.55 1196.20,1603.80 1193.45,1602.15 1189.60,1601.60"/>
    </edge>
    <edge id=":1572_2" function="internal">
        <lane id=":1572_2_0" index="0" speed="9.26" length="19.35" shape="1198.40,1610.40 1199.15,1605.15 1201.40,1601.40 1205.15,1599.15 1210.40,1598.40"/>
    </edge>
    <edge id=":1572_3" function="internal">
        <lane id=":1572_3_0" index="0" speed="3.65" length="2.34" shape="1198.40,1610.40 1199.20,1609.20 1200.00,1608.80"/>
    </edge>
    <edge id=":1572_12" function="internal">
        <lane id=":1572_12_0" index="0" speed="3.65" length="2.34" shape="1200.00,1608.80 1200.80,1609.20 1201.60,1610.40"/>
    </edge>
    <edge id=":1572_4" function="internal">
        <lane id=":1572_4_0" index="0" speed="6.51" length="9.03" shape="1210.40,1604.80 1207.95,1605.15 1206.20,1606.20 1205.15,1607.95 1204.80,1610.40"/>
    </edge>
    <edge id=":1572_5" function="internal">
        <lane id=":1572_5_0" index="0" speed="13.89" length="20.80" shape="1210.40,1604.80 1189.60,1604.80"/>
        <lane id=":1572_5_1" index="1" speed="13.89" length="20.80" shape="1210.40,1601.60 1189.60,1601.60"/>
    </edge>
    <edge id=":1572_7" function="internal">
        <lane id=":1572_7_0" index="0" speed="3.65" length="1.44" shape="1210.40,1601.60 1209.20,1600.80"/>
    </edge>
    <edge id=":1572_13" function="internal">
        <lane id=":1572_13_0" index="0" speed="3.65" length="3.23" shape="1209.20,1600.80 1208.80,1600.00 1209.20,1599.20 1210.40,1598.40"/>
    </edge>
    <edge id=":1572_8" function="internal">
        <lane id=":1572_8_0" index="0" speed="13.89" length="20.80" shape="1189.60,1595.20 1210.40,1595.20"/>
        <lane id=":1572_8_1" index="1" speed="13.89" length="20.80" shape="1189.60,1598.40 1210.40,1598.40"/>
    </edge>
    <edge id=":1572_10" function="internal">
        <lane id=":1572_10_0" index="0" speed="9.26" length="5.01" shape="1189.60,1598.40 1194.56,1599.11"/>
    </edge>
    <edge id=":1572_11" function="internal">
        <lane id=":1572_11_0" index="0" speed="3.65" length="1.44" shape="1189.60,1598.40 1190.80,1599.20"/>
    </edge>
    <edge id=":1572_14" function="internal">
        <lane id=":1572_14_0" index="0" speed="9.26" length="14.34" shape="1194.56,1599.11 1194.85,1599.15 1198.60,1601.40 1200.85,1605.15 1201.60,1610.40"/>
    </edge>
    <edge id=":1572_15" function="internal">
        <lane id=":1572_15_0" index="0" speed="3.65" length="3.23" shape="1190.80,1599.20 1191.20,1600.00 1190.80,1600.80 1189.60,1601.60"/>
    </edge>
    <edge id=":1925_0" function="internal">
        <lane id=":1925_0_0" index="0" speed="3.65" length="4.67" shape="2800.00,2598.40 2801.20,2599.20 2801.60,2600.00 2801.20,2600.80 2800.00,2601.60"/>
    </edge>
    <edge id=":2_0" function="internal">
        <lane id=":2_0_0" index="0" speed="6.51" length="9.03" shape="1995.20,1410.40 1994.85,1407.95 1993.80,1406.20 1992.05,1405.15 1989.60,1404.80"/>
    </edge>
    <edge id=":2_1" function="internal">
        <lane id=":2_1_0" index="0" speed="13.89" length="20.80" shape="1995.20,1410.40 1995.20,1389.60"/>
        <lane id=":2_1_1" index="1" speed="13.89" length="20.80" shape="1998.40,1410.40 1998.40,1389.60"/>
    </edge>
    <edge id=":2_3" function="internal">
        <lane id=":2_3_0" index="0" speed="3.65" length="1.44" shape="1998.40,1410.40 1999.20,1409.20"/>
    </edge>
    <edge id=":2_12" function="internal">
        <lane id=":2_12_0" index="0" speed="3.65" length="3.23" shape="1999.20,1409.20 2000.00,1408.80 2000.80,1409.20 2001.60,1410.40"/>
    </edge>
    <edge id=":2_4" function="internal">
        <lane id=":2_4_0" index="0" speed="13.89" length="20.80" shape="2004.80,1389.60 2004.80,1410.40"/>
        <lane id=":2_4_1" index="1" speed="13.89" length="20.80" shape="2001.60,1389.60 2001.60,1410.40"/>
    </edge>
    <edge id=":2_6" function="internal">
        <lane id=":2_6_0" index="0" speed="9.26" length="5.01" shape="2001.60,1389.60 2000.89,1394.56"/>
    </edge>
    <edge id=":2_7" function="internal">
        <lane id=":2_7_0" index="0" speed="3.65" length="1.44" shape="2001.60,1389.60 2000.80,1390.80"/>
    </edge>
    <edge id=":2_13" function="internal">
        <lane id=":2_13_0" index="0" speed="9.26" length="14.34" shape="2000.89,1394.56 2000.85,1394.85 1998.60,1398.60 1994.85,1400.85 1989.60,1401.60"/>
    </edge>
    <edge id=":2_14" function="internal">
        <lane id=":2_14_0" index="0" speed="3.65" length="3.23" shape="2000.80,1390.80 2000.00,1391.20 1999.20,1390.80 1998.40,1389.60"/>
    </edge>
    <edge id=":2_8" function="internal">
        <lane id=":2_8_0" index="0" speed="6.51" length="9.03" shape="1989.60,1395.20 1992.05,1394.85 1993.80,1393.80 1994.85,1392.05 1995.20,1389.60"/>
        <lane id=":2_8_1" index="1" speed="8.00" length="14.19" shape="1989.60,1398.40 1993.45,1397.85 1996.20,1396.20 1997.85,1393.45 1998.40,1389.60"/>
    </edge>
    <edge id=":2_10" function="internal">
        <lane id=":2_10_0" index="0" speed="9.26" length="19.35" shape="1989.60,1398.40 1994.85,1399.15 1998.60,1401.40 2000.85,1405.15 2001.60,1410.40"/>
    </edge>
    <edge id=":2_11" function="internal">
        <lane id=":2_11_0" index="0" speed="3.65" length="2.34" shape="1989.60,1398.40 1990.80,1399.20 1991.20,1400.00"/>
    </edge>
    <edge id=":2_15" function="internal">
        <lane id=":2_15_0" index="0" speed="3.65" length="2.34" shape="1991.20,1400.00 1990.80,1400.80 1989.60,1401.60"/>
    </edge>
    <edge id=":20_0" function="internal">
        <lane id=":20_0_0" index="0" speed="6.51" length="9.03" shape="1995.20,1210.40 1994.85,1207.95 1993.80,1206.20 1992.05,1205.15 1989.60,1204.80"/>
    </edge>
    <edge id=":20_1" function="internal">
        <lane id=":20_1_0" index="0" speed="13.89" length="20.80" shape="1995.20,1210.40 1995.20,1189.60"/>
        <lane id=":20_1_1" index="1" speed="13.89" length="20.80" shape="1998.40,1210.40 1998.40,1189.60"/>
    </edge>
    <edge id=":20_3" function="internal">
        <lane id=":20_3_0" index="0" speed="3.65" length="1.44" shape="1998.40,1210.40 1999.20,1209.20"/>
    </edge>
    <edge id=":20_12" function="internal">
        <lane id=":20_12_0" index="0" speed="3.65" length="3.23" shape="1999.20,1209.20 2000.00,1208.80 2000.80,1209.20 2001.60,1210.40"/>
    </edge>
    <edge id=":20_4" function="internal">
        <lane id=":20_4_0" index="0" speed="13.89" length="20.80" shape="2004.80,1189.60 2004.80,1210.40"/>
        <lane id=":20_4_1" index="1" speed="13.89" length="20.80" shape="2001.60,1189.60 2001.60,1210.40"/>
    </edge>
    <edge id=":20_6" function="internal">
        <lane id=":20_6_0" index="0" speed="9.26" length="5.01" shape="2001.60,1189.60 2000.89,1194.56"/>
    </edge>
    <edge id=":20_7" function="internal">
        <lane id=":20_7_0" index="0" speed="3.65" length="1.44" shape="2001.60,1189.60 2000.80,1190.80"/>
    </edge>
    <edge id=":20_13" function="internal">
        <lane id=":20_13_0" index="0" speed="9.26" length="14.34" shape="2000.89,1194.56 2000.85,1194.85 1998.60,1198.60 1994.85,1200.85 1989.60,1201.60"/>
    </edge>
    <edge id=":20_14" function="internal">
        <lane id=":20_14_0" index="0" speed="3.65" length="3.23" shape="2000.80,1190.80 2000.00,1191.20 1999.20,1190.80 1998.40,1189.60"/>
    </edge>
    <edge id=":20_8" function="internal">
        <lane id=":20_8_0" index="0" speed="6.51" length="9.03" shape="1989.60,1195.20 1992.05,1194.85 1993.80,1193.80 1994.85,1192.05 1995.20,1189.60"/>
        <lane id=":20_8_1" index="1" speed="8.00" length="14.19" shape="1989.60,1198.40 1993.45,1197.85 1996.20,1196.20 1997.85,1193.45 1998.40,1189.60"/>
    </edge>
    <edge id=":20_10" function="internal">
        <lane id=":20_10_0" index="0" speed="9.26" length="19.35" shape="1989.60,1198.40 1994.85,1199.15 1998.60,1201.40 2000.85,1205.15 2001.60,1210.40"/>
    </edge>
    <edge id=":20_11" function="internal">
        <lane id=":20_11_0" index="0" speed="3.65" length="2.34" shape="1989.60,1198.40 1990.80,1199.20 1991.20,1200.00"/>
    </edge>
    <edge id=":20_15" function="internal">
        <lane id=":20_15_0" index="0" speed="3.65" length="2.34" shape="1991.20,1200.00 1990.80,1200.80 1989.60,1201.60"/>
    </edge>
    <edge id=":2053_0" function="internal">
        <lane id=":2053_0_0" index="0" speed="3.65" length="4.67" shape="800.00,1601.60 798.80,1600.80 798.40,1600.00 798.80,1599.20 800.00,1598.40"/>
    </edge>
    <edge id=":257_0" function="internal">
        <lane id=":257_0_0" index="0" speed="13.89" length="20.80" shape="1795.20,2210.40 1795.20,2189.60"/>
        <lane id=":257_0_1" index="1" speed="13.89" length="20.80" shape="1798.40,2210.40 1798.40,2189.60"/>
    </edge>
    <edge id=":257_2" function="internal">
        <lane id=":257_2_0" index="0" speed="9.26" length="5.01" shape="1798.40,2210.40 1799.11,2205.44"/>
    </edge>
    <edge id=":257_3" function="internal">
        <lane id=":257_3_0" index="0" speed="3.65" length="1.44" shape="1798.40,2210.40 1799.20,2209.20"/>
    </edge>
    <edge id=":257_12" function="internal">
        <lane id=":257_12_0" index="0" speed="9.26" length="14.34" shape="1799.11,2205.44 1799.15,2205.15 1801.40,2201.40 1805.15,2199.15 1810.40,2198.40"/>
    </edge>
    <edge id=":257_13" function="internal">
        <lane id=":257_13_0" index="0" speed="3.65" length="3.23" shape="1799.20,2209.20 1800.00,2208.80 1800.80,2209.20 1801.60,2210.40"/>
    </edge>
    <edge id=":257_4" function="internal">
        <lane id=":257_4_0" index="0" speed="6.51" length="9.03" shape="1810.40,2204.80 1807.95,2205.15 1806.20,2206.20 1805.15,2207.95 1804.80,2210.40"/>
        <lane id=":257_4_1" index="1" speed="8.00" length="14.19" shape="1810.40,2201.60 1806.55,2202.15 1803.80,2203.80 1802.15,2206.55 1801.60,2210.40"/>
    </edge>
    <edge id=":257_6" function="internal">
        <lane id=":257_6_0" index="0" speed="9.26" length="19.35" shape="1810.40,2201.60 1805.15,2200.85 1801.40,2198.60 1799.15,2194.85 1798.40,2189.60"/>
    </edge>
    <edge id=":257_7" function="internal">
        <lane id=":257_7_0" index="0" speed="3.65" length="2.34" shape="1810.40,2201.60 1809.20,2200.80 1808.80,2200.00"/>
    </edge>
    <edge id=":257_14" function="internal">
        <lane id=":257_14_0" index="0" speed="3.65" length="2.34" shape="1808.80,2200.00 1809.20,2199.20 1810.40,2198.40"/>
    </edge>
    <edge id=":257_8" function="internal">
        <lane id=":257_8_0" index="0" speed="6.51" length="9.03" shape="1804.80,2189.60 1805.15,2192.05 1806.20,2193.80 1807.95,2194.85 1810.40,2195.20"/>
    </edge>
    <edge id=":257_9" function="internal">
        <lane id=":257_9_0" index="0" speed="13.89" length="20.80" shape="1804.80,2189.60 1804.80,2210.40"/>
        <lane id=":257_9_1" index="1" speed="13.89" length="20.80" shape="1801.60,2189.60 1801.60,2210.40"/>
    </edge>
    <edge id=":257_11" function="internal">
        <lane id=":257_11_0" index="0" speed="3.65" length="1.44" shape="1801.60,2189.60 1800.80,2190.80"/>
    </edge>
    <edge id=":257_15" function="internal">
        <lane id=":257_15_0" index="0" speed="3.65" length="3.23" shape="1800.80,2190.80 1800.00,2191.20 1799.20,2190.80 1798.40,2189.60"/>
    </edge>
    <edge id=":269_0" function="internal">
        <lane id=":269_0_0" index="0" speed="3.65" length="4.67" shape="1801.60,2400.00 1800.80,2401.20 1800.00,2401.60 1799.20,2401.20 1798.40,2400.00"/>
    </edge>
    <edge id=":274_0" function="internal">
        <lane id=":274_0_0" index="0" speed="3.65" length="4.67" shape="1798.40,1000.00 1799.20,998.80 1800.00,998.40 1800.80,998.80 1801.60,1000.00"/>
    </edge>
    <edge id=":288_0" function="internal">
        <lane id=":288_0_0" index="0" speed="13.89" length="20.80" shape="1595.20,1410.40 1595.20,1389.60"/>
        <lane id=":288_0_1" index="1" speed="13.89" length="20.80" shape="1598.40,1410.40 1598.40,1389.60"/>
    </edge>
    <edge id=":288_2" function="internal">
        <lane id=":288_2_0" index="0" speed="9.26" length="5.01" shape="1598.40,1410.40 1599.11,1405.44"/>
    </edge>
    <edge id=":288_3" function="internal">
        <lane id=":288_3_0" index="0" speed="3.65" length="1.44" shape="1598.40,1410.40 1599.20,1409.20"/>
    </edge>
    <edge id=":288_12" function="internal">
        <lane id=":288_12_0" index="0" speed="9.26" length="14.34" shape="1599.11,1405.44 1599.15,1405.15 1601.40,1401.40 1605.15,1399.15 1610.40,1398.40"/>
    </edge>
    <edge id=":288_13" function="internal">
        <lane id=":288_13_0" index="0" speed="3.65" length="3.23" shape="1599.20,1409.20 1600.00,1408.80 1600.80,1409.20 1601.60,1410.40"/>
    </edge>
    <edge id=":288_4" function="internal">
        <lane id=":288_4_0" index="0" speed="6.51" length="9.03" shape="1610.40,1404.80 1607.95,1405.15 1606.20,1406.20 1605.15,1407.95 1604.80,1410.40"/>
        <lane id=":288_4_1" index="1" speed="8.00" length="14.19" shape="1610.40,1401.60 1606.55,1402.15 1603.80,1403.80 1602.15,1406.55 1601.60,1410.40"/>
    </edge>
    <edge id=":288_6" function="internal">
        <lane id=":288_6_0" index="0" speed="9.26" length="19.35" shape="1610.40,1401.60 1605.15,1400.85 1601.40,1398.60 1599.15,1394.85 1598.40,1389.60"/>
    </edge>
    <edge id=":288_7" function="internal">
        <lane id=":288_7_0" index="0" speed="3.65" length="2.34" shape="1610.40,1401.60 1609.20,1400.80 1608.80,1400.00"/>
    </edge>
    <edge id=":288_14" function="internal">