<?xml version="1.0" encoding="UTF-8"?>

<!-- generated on 2025-03-10 19:20:40.566960 by randomTrips.py v1_19_0+1770-8bb5c24c187
<configuration>
    <net-file value="random_subnetwork_3.net.xml"/>
    <output-trip-file value="random_subnetwork_3_light.trips.xml"/>
    <fringe-factor value="100"/>
    <min-distance value="800.0"/>
    <remove-loops value="True"/>
    <validate value="True"/>
    <period value="2.582792860012627"/>
    <random-depart value="True"/>
    <binomial value="10"/>
</configuration>
-->

<!-- generated on 2025-03-10 19:20:40 by Eclipse SUMO duarouter Version v1_19_0+1770-8bb5c24c187
<configuration xmlns:xsi="http://www.w3.org/2001/XMLSchema-instance" xsi:noNamespaceSchemaLocation="http://sumo.dlr.de/xsd/duarouterConfiguration.xsd">

    <input>
        <net-file value="random_subnetwork_3.net.xml"/>
        <route-files value="random_subnetwork_3_light.trips.xml"/>
    </input>

    <output>
        <output-file value="random_subnetwork_3_light.trips.xml.tmp"/>
        <alternatives-output value="NUL"/>
        <write-trips value="true"/>
    </output>

    <processing>
        <remove-loops value="true"/>
    </processing>

    <time>
        <begin value="0.0"/>
        <end value="3600.0"/>
    </time>

    <report>
        <no-warnings value="true"/>
        <ignore-errors value="true"/>
        <no-step-log value="true"/>
    </report>

</configuration>
-->

<routes xmlns:xsi="http://www.w3.org/2001/XMLSchema-instance" xsi:noNamespaceSchemaLocation="http://sumo.dlr.de/xsd/routes_file.xsd">
    <trip id="6" depart="23.00" from="-663" to="1799" via="500"/>
    <trip id="10" depart="28.00" from="-663" to="1799" via="500"/>
    <trip id="15" depart="36.00" from="-663" to="1799" via="500"/>
    <trip id="24" depart="66.00" from="-663" to="1799" via="500"/>
    <trip id="27" depart="74.00" from="-663" to="1799" via="500"/>
    <trip id="33" depart="85.00" from="-663" to="1799" via="500"/>
    <trip id="41" depart="116.00" from="-663" to="1799" via="500"/>
    <trip id="44" depart="124.00" from="-663" to="1799" via="500"/>
    <trip id="45" depart="130.00" from="-663" to="1799" via="500"/>
    <trip id="53" depart="151.00" from="-663" to="1799" via="500"/>
    <trip id="57" depart="157.00" from="-663" to="1799" via="500"/>
    <trip id="59" depart="167.00" from="-663" to="1799" via="500"/>
    <trip id="66" depart="181.00" from="-663" to="1799" via="500"/>
    <trip id="67" depart="183.00" from="-663" to="1799" via="500"/>
    <trip id="93" depart="247.00" from="-663" to="1799" via="500"/>
    <trip id="100" depart="274.00" from="-663" to="1799" via="500"/>
    <trip id="103" depart="287.00" from="-663" to="1799" via="500"/>
    <trip id="110" depart="306.00" from="-663" to="1799" via="500"/>
    <trip id="116" depart="315.00" from="-663" to="1799" via="500"/>
    <trip id="131" depart="356.00" from="-663" to="1799" via="500"/>
    <trip id="140" depart="380.00" from="-663" to="1799" via="500"/>
    <trip id="144" depart="389.00" from="-663" to="1799" via="500"/>
    <trip id="158" depart="436.00" from="-663" to="1799" via="500"/>
    <trip id="159" depart="441.00" from="-663" to="1799" via="500"/>
    <trip id="166" depart="463.00" from="-663" to="1799" via="500"/>
    <trip id="190" depart="529.00" from="-663" to="1799" via="500"/>
    <trip id="200" depart="553.00" from="-663" to="1799" via="500"/>
    <trip id="201" depart="556.00" from="-663" to="1799" via="500"/>
    <trip id="208" depart="576.00" from="-663" to="1799" via="500"/>
    <trip id="218" depart="600.00" from="-663" to="1799" via="500"/>
    <trip id="227" depart="620.00" from="-663" to="1799" via="500"/>
    <trip id="231" depart="631.00" from="-663" to="1799" via="500"/>
    <trip id="240" depart="647.00" from="-663" to="1799" via="500"/>
    <trip id="244" depart="658.00" from="-663" to="1799" via="500"/>
    <trip id="249" depart="669.00" from="-663" to="1799" via="500"/>
    <trip id="255" depart="689.00" from="-663" to="1799" via="500"/>
    <trip id="260" depart="701.00" from="-663" to="1799" via="500"/>
    <trip id="285" depart="760.00" from="-663" to="1799" via="500"/>
    <trip id="287" depart="763.00" from="-663" to="1799" via="500"/>
    <trip id="310" depart="838.00" from="-663" to="1799" via="500"/>
    <trip id="319" depart="878.00" from="-663" to="1799" via="500"/>
    <trip id="337" depart="921.00" from="-663" to="1799" via="500"/>
    <trip id="354" depart="962.00" from="-663" to="1799" via="500"/>
    <trip id="362" depart="982.00" from="-663" to="1799" via="500"/>
    <trip id="366" depart="1000.00" from="-663" to="1799" via="500"/>
    <trip id="402" depart="1087.00" from="-663" to="1799" via="500"/>
    <trip id="403" depart="1088.00" from="-663" to="1799" via="500"/>
    <trip id="406" depart="1090.00" from="-663" to="1799" via="500"/>
    <trip id="410" depart="1095.00" from="-663" to="1799" via="500"/>
    <trip id="423" depart="1140.00" from="-663" to="1799" via="500"/>
    <trip id="431" depart="1163.00" from="-663" to="1799" via="500"/>
    <trip id="437" depart="1173.00" from="-663" to="1799" via="500"/>
    <trip id="444" depart="1208.00" from="-663" to="1799" via="500"/>
    <trip id="447" depart="1219.00" from="-663" to="1799" via="500"/>
    <trip id="454" depart="1239.00" from="-663" to="1799" via="500"/>
    <trip id="468" depart="1281.00" from="-663" to="1799" via="500"/>
    <trip id="475" depart="1298.00" from="-663" to="1799" via="500"/>
    <trip id="485" depart="1319.00" from="-663" to="1799" via="500"/>
    <trip id="493" depart="1330.00" from="-663" to="1799" via="500"/>
    <trip id="501" depart="1347.00" from="-663" to="1799" via="500"/>
    <trip id="502" depart="1347.00" from="-663" to="1799" via="500"/>
    <trip id="513" depart="1363.00" from="-663" to="1799" via="500"/>
    <trip id="527" depart="1394.00" from="-663" to="1799" via="500"/>
    <trip id="529" depart="1395.00" from="-663" to="1799" via="500"/>
    <trip id="534" depart="1401.00" from="-663" to="1799" via="500"/>
    <trip id="537" depart="1406.00" from="-663" to="1799" via="500"/>
    <trip id="548" depart="1426.00" from="-663" to="1799" via="500"/>
    <trip id="566" depart="1471.00" from="-663" to="1799" via="500"/>
    <trip id="569" depart="1487.00" from="-663" to="1799" via="500"/>
    <trip id="571" depart="1492.00" from="-663" to="1799" via="500"/>
    <trip id="572" depart="1493.00" from="-663" to="1799" via="500"/>
    <trip id="584" depart="1517.00" from="-663" to="1799" via="500"/>
    <trip id="585" depart="1518.00" from="-663" to="1799" via="500"/>
    <trip id="590" depart="1532.00" from="-663" to="1799" via="500"/>
    <trip id="594" depart="1538.00" from="-663" to="1799" via="500"/>
    <trip id="595" depart="1538.00" from="-663" to="1799" via="500"/>
    <trip id="598" depart="1541.00" from="-663" to="1799" via="500"/>
    <trip id="606" depart="1558.00" from="-663" to="1799" via="500"/>
    <trip id="620" depart="1592.00" from="-663" to="1799" via="500"/>
    <trip id="630" depart="1616.00" from="-663" to="1799" via="500"/>
    <trip id="634" depart="1626.00" from="-663" to="1799" via="500"/>
    <trip id="639" depart="1644.00" from="-663" to="1799" via="500"/>
    <trip id="650" depart="1661.00" from="-663" to="1799" via="500"/>
    <trip id="651" depart="1662.00" from="-663" to="1799" via="500"/>
    <trip id="657" depart="1678.00" from="-663" to="1799" via="500"/>
    <trip id="664" depart="1709.00" from="-663" to="1799" via="500"/>
    <trip id="670" depart="1744.00" from="-663" to="1799" via="500"/>
    <trip id="680" depart="1778.00" from="-663" to="1799" via="500"/>
    <trip id="689" depart="1799.00" from="-663" to="1799" via="500"/>
    <trip id="691" depart="1805.00" from="-663" to="1799" via="500"/>
    <trip id="692" depart="1805.00" from="-663" to="1799" via="500"/>
    <trip id="709" depart="1845.00" from="-663" to="1799" via="500"/>
    <trip id="738" depart="1930.00" from="-663" to="1799" via="500"/>
    <trip id="750" depart="1949.00" from="-663" to="1799" via="500"/>
    <trip id="753" depart="1956.00" from="-663" to="1799" via="500"/>
    <trip id="764" depart="1984.00" from="-663" to="1799" via="500"/>
    <trip id="769" depart="1993.00" from="-663" to="1799" via="500"/>
    <trip id="773" depart="2007.00" from="-663" to="1799" via="500"/>
    <trip id="778" depart="2016.00" from="-663" to="1799" via="500"/>
    <trip id="784" depart="2036.00" from="-663" to="1799" via="500"/>
    <trip id="801" depart="2078.00" from="-663" to="1799" via="500"/>
    <trip id="807" depart="2092.00" from="-663" to="1799" via="500"/>
    <trip id="815" depart="2107.00" from="-663" to="1799" via="500"/>
    <trip id="816" depart="2109.00" from="-663" to="1799" via="500"/>
    <trip id="823" depart="2134.00" from="-663" to="1799" via="500"/>
    <trip id="834" depart="2156.00" from="-663" to="1799" via="500"/>
    <trip id="845" depart="2193.00" from="-663" to="1799" via="500"/>
    <trip id="847" depart="2196.00" from="-663" to="1799" via="500"/>
    <trip id="850" depart="2200.00" from="-663" to="1799" via="500"/>
    <trip id="854" depart="2214.00" from="-663" to="1799" via="500"/>
    <trip id="855" depart="2218.00" from="-663" to="1799" via="500"/>
    <trip id="874" depart="2276.00" from="-663" to="1799" via="500"/>
    <trip id="876" depart="2280.00" from="-663" to="1799" via="500"/>
    <trip id="906" depart="2352.00" from="-663" to="1799" via="500"/>
    <trip id="908" depart="2353.00" from="-663" to="1799" via="500"/>
    <trip id="916" depart="2377.00" from="-663" to="1799" via="500"/>
    <trip id="917" depart="2384.00" from="-663" to="1799" via="500"/>
    <trip id="918" depart="2386.00" from="-663" to="1799" via="500"/>
    <trip id="932" depart="2423.00" from="-663" to="1799" via="500"/>
    <trip id="936" depart="2434.00" from="-663" to="1799" via="500"/>
    <trip id="939" depart="2451.00" from="-663" to="1799" via="500"/>
    <trip id="951" depart="2484.00" from="-663" to="1799" via="500"/>
    <trip id="953" depart="2487.00" from="-663" to="1799" via="500"/>
    <trip id="973" depart="2534.00" from="-663" to="1799" via="500"/>
    <trip id="974" depart="2535.00" from="-663" to="1799" via="500"/>
    <trip id="981" depart="2553.00" from="-663" to="1799" via="500"/>
    <trip id="985" depart="2567.00" from="-663" to="1799" via="500"/>
    <trip id="997" depart="2608.00" from="-663" to="1799" via="500"/>
    <trip id="999" depart="2609.00" from="-663" to="1799" via="500"/>
    <trip id="1003" depart="2625.00" from="-663" to="1799" via="500"/>
    <trip id="1012" depart="2646.00" from="-663" to="1799" via="500"/>
    <trip id="1014" depart="2653.00" from="-663" to="1799" via="500"/>
    <trip id="1027" depart="2695.00" from="-663" to="1799" via="500"/>
    <trip id="1028" depart="2702.00" from="-663" to="1799" via="500"/>
    <trip id="1051" depart="2747.00" from="-663" to="1799" via="500"/>
    <trip id="1054" depart="2749.00" from="-663" to="1799" via="500"/>
    <trip id="1070" depart="2782.00" from="-663" to="1799" via="500"/>
    <trip id="1093" depart="2842.00" from="-663" to="1799" via="500"/>
    <trip id="1099" depart="2854.00" from="-663" to="1799" via="500"/>
    <trip id="1113" depart="2883.00" from="-663" to="1799" via="500"/>
    <trip id="1122" depart="2899.00" from="-663" to="1799" via="500"/>
    <trip id="1128" depart="2904.00" from="-663" to="1799" via="500"/>
    <trip id="1135" depart="2915.00" from="-663" to="1799" via="500"/>
    <trip id="1136" depart="2915.00" from="-663" to="1799" via="500"/>
    <trip id="1147" depart="2947.00" from="-663" to="1799" via="500"/>
    <trip id="1152" depart="2955.00" from="-663" to="1799" via="500"/>
    <trip id="1158" depart="2964.00" from="-663" to="1799" via="500"/>
    <trip id="1162" depart="2972.00" from="-663" to="1799" via="500"/>
    <trip id="1164" depart="2974.00" from="-663" to="1799" via="500"/>
    <trip id="1181" depart="3013.00" from="-663" to="1799" via="500"/>
    <trip id="1188" depart="3047.00" from="-663" to="1799" via="500"/>
    <trip id="1198" depart="3071.00" from="-663" to="1799" via="500"/>
    <trip id="1202" depart="3075.00" from="-663" to="1799" via="500"/>
    <trip id="1229" depart="3156.00" from="-663" to="1799" via="500"/>
    <trip id="1232" depart="3162.00" from="-663" to="1799" via="500"/>
    <trip id="1233" depart="3169.00" from="-663" to="1799" via="500"/>
    <trip id="1235" depart="3178.00" from="-663" to="1799" via="500"/>
    <trip id="1239" depart="3191.00" from="-663" to="1799" via="500"/>
    <trip id="1240" depart="3195.00" from="-663" to="1799" via="500"/>
    <trip id="1246" depart="3211.00" from="-663" to="1799" via="500"/>
    <trip id="1248" depart="3215.00" from="-663" to="1799" via="500"/>
    <trip id="1251" depart="3220.00" from="-663" to="1799" via="500"/>
    <trip id="1256" depart="3244.00" from="-663" to="1799" via="500"/>
    <trip id="1265" depart="3266.00" from="-663" to="1799" via="500"/>
    <trip id="1272" depart="3283.00" from="-663" to="1799" via="500"/>
    <trip id="1301" depart="3368.00" from="-663" to="1799" via="500"/>
    <trip id="1317" depart="3402.00" from="-663" to="1799" via="500"/>
    <trip id="1332" depart="3433.00" from="-663" to="1799" via="500"/>
    <trip id="1348" depart="3475.00" from="-663" to="1799" via="500"/>
    <trip id="1363" depart="3512.00" from="-663" to="1799" via="500"/>
    <trip id="1368" depart="3531.00" from="-663" to="1799" via="500"/>
    <trip id="1386" depart="3582.00" from="-663" to="1799" via="500"/>
</routes>
