<?xml version="1.0" encoding="UTF-8"?>

<!-- generated on 2025-03-09 19:44:16.024298 by randomTrips.py v1_19_0+1770-8bb5c24c187
<configuration>
    <net-file value="random_subnetwork_3.net.xml"/>
    <output-trip-file value="random_subnetwork_3_medium.trips.xml"/>
    <fringe-factor value="100"/>
    <remove-loops value="True"/>
    <validate value="True"/>
    <period value="9.9219"/>
    <binomial value="4"/>
</configuration>
-->

<!-- generated on 2025-03-09 19:44:16 by Eclipse SUMO duarouter Version v1_19_0+1770-8bb5c24c187
<configuration xmlns:xsi="http://www.w3.org/2001/XMLSchema-instance" xsi:noNamespaceSchemaLocation="http://sumo.dlr.de/xsd/duarouterConfiguration.xsd">

    <input>
        <net-file value="random_subnetwork_3.net.xml"/>
        <route-files value="random_subnetwork_3_medium.trips.xml"/>
    </input>

    <output>
        <output-file value="random_subnetwork_3_medium.trips.xml.tmp"/>
        <alternatives-output value="NUL"/>
        <write-trips value="true"/>
    </output>

    <processing>
        <remove-loops value="true"/>
    </processing>

    <time>
        <begin value="0.0"/>
        <end value="3600.0"/>
    </time>

    <report>
        <no-warnings value="true"/>
        <ignore-errors value="true"/>
        <no-step-log value="true"/>
    </report>

</configuration>
-->

<routes xmlns:xsi="http://www.w3.org/2001/XMLSchema-instance" xsi:noNamespaceSchemaLocation="http://sumo.dlr.de/xsd/routes_file.xsd">
    <trip id="0" depart="0.00" from="-654" to="-301"/>
    <trip id="1" depart="4.00" from="301" to="654"/>
    <trip id="2" depart="24.00" from="-663" to="654"/>
    <trip id="3" depart="29.00" from="-654" to="-301"/>
    <trip id="4" depart="65.00" from="301" to="1799"/>
    <trip id="5" depart="70.00" from="301" to="654"/>
    <trip id="6" depart="71.00" from="-1799" to="663"/>
    <trip id="7" depart="77.00" from="-663" to="1799"/>
    <trip id="8" depart="81.00" from="-1799" to="1799"/>
    <trip id="9" depart="87.00" from="301" to="654"/>
    <trip id="10" depart="93.00" from="-654" to="1799"/>
    <trip id="11" depart="98.00" from="-1799" to="1799"/>
    <trip id="12" depart="100.00" from="301" to="663"/>
    <trip id="13" depart="113.00" from="-654" to="663"/>
    <trip id="14" depart="122.00" from="-663" to="663"/>
    <trip id="15" depart="124.00" from="-1799" to="-301"/>
    <trip id="16" depart="141.00" from="301" to="-301"/>
    <trip id="17" depart="150.00" from="-663" to="1799"/>
    <trip id="18" depart="162.00" from="-654" to="654"/>
    <trip id="19" depart="211.00" from="301" to="663"/>
    <trip id="20" depart="229.00" from="-663" to="1799"/>
    <trip id="21" depart="231.00" from="301" to="654"/>
    <trip id="22" depart="242.00" from="301" to="-301"/>
    <trip id="23" depart="245.00" from="301" to="-301"/>
    <trip id="24" depart="246.00" from="301" to="-301"/>
    <trip id="25" depart="270.00" from="301" to="654"/>
    <trip id="26" depart="279.00" from="-654" to="-301"/>
    <trip id="27" depart="280.00" from="-663" to="-301"/>
    <trip id="28" depart="282.00" from="301" to="663"/>
    <trip id="29" depart="283.00" from="-654" to="663"/>
    <trip id="30" depart="332.00" from="-1799" to="1799"/>
    <trip id="31" depart="336.00" from="-663" to="-301"/>
    <trip id="32" depart="341.00" from="301" to="1799"/>
    <trip id="33" depart="397.00" from="301" to="654"/>
    <trip id="34" depart="417.00" from="-654" to="-301"/>
    <trip id="35" depart="434.00" from="-663" to="663"/>
    <trip id="36" depart="441.00" from="-663" to="-301"/>
    <trip id="37" depart="450.00" from="-663" to="654"/>
    <trip id="38" depart="471.00" from="-1799" to="1799"/>
    <trip id="39" depart="475.00" from="-1799" to="-301"/>
    <trip id="40" depart="492.00" from="301" to="663"/>
    <trip id="41" depart="507.00" from="-663" to="1799"/>
    <trip id="42" depart="509.00" from="-663" to="-301"/>
    <trip id="43" depart="510.00" from="301" to="654"/>
    <trip id="44" depart="516.00" from="-1799" to="1799"/>
    <trip id="45" depart="532.00" from="-654" to="1799"/>
    <trip id="46" depart="559.00" from="-654" to="654"/>
    <trip id="47" depart="562.00" from="-1799" to="1799"/>
    <trip id="48" depart="582.00" from="-1799" to="663"/>
    <trip id="49" depart="604.00" from="301" to="654"/>
    <trip id="50" depart="610.00" from="301" to="-301"/>
    <trip id="51" depart="615.00" from="-654" to="-301"/>
    <trip id="52" depart="616.00" from="-663" to="663"/>
    <trip id="53" depart="620.00" from="-663" to="1799"/>
    <trip id="54" depart="632.00" from="-1799" to="1799"/>
    <trip id="55" depart="656.00" from="-1799" to="654"/>
    <trip id="56" depart="659.00" from="-654" to="-301"/>
    <trip id="57" depart="660.00" from="-663" to="663"/>
    <trip id="58" depart="677.00" from="301" to="663"/>
    <trip id="59" depart="679.00" from="-1799" to="663"/>
    <trip id="60" depart="701.00" from="301" to="-301"/>
    <trip id="61" depart="702.00" from="-663" to="663"/>
    <trip id="62" depart="716.00" from="-654" to="654"/>
    <trip id="63" depart="753.00" from="301" to="1799"/>
    <trip id="64" depart="769.00" from="301" to="663"/>
    <trip id="65" depart="769.00" from="301" to="654"/>
    <trip id="66" depart="769.00" from="-500" to="663"/>
    <trip id="67" depart="794.00" from="-654" to="663"/>
    <trip id="68" depart="798.00" from="-654" to="663"/>
    <trip id="69" depart="808.00" from="-663" to="1799"/>
    <trip id="70" depart="816.00" from="-663" to="663"/>
    <trip id="71" depart="843.00" from="-1799" to="654"/>
    <trip id="72" depart="877.00" from="500" to="654"/>
    <trip id="73" depart="891.00" from="-663" to="1799"/>
    <trip id="74" depart="897.00" from="-1799" to="654"/>
    <trip id="75" depart="904.00" from="-663" to="654"/>
    <trip id="76" depart="912.00" from="-663" to="654"/>
    <trip id="77" depart="922.00" from="-1799" to="-301"/>
    <trip id="78" depart="927.00" from="-663" to="-301"/>
    <trip id="79" depart="948.00" from="-1799" to="654"/>
    <trip id="80" depart="951.00" from="-663" to="654"/>
    <trip id="81" depart="967.00" from="-663" to="654"/>
    <trip id="82" depart="976.00" from="-1799" to="-301"/>
    <trip id="83" depart="983.00" from="-1799" to="663"/>
    <trip id="84" depart="996.00" from="301" to="353"/>
    <trip id="85" depart="1009.00" from="-1799" to="654"/>
    <trip id="86" depart="1022.00" from="-1799" to="663"/>
    <trip id="87" depart="1031.00" from="-663" to="654"/>
    <trip id="88" depart="1043.00" from="301" to="663"/>
    <trip id="89" depart="1044.00" from="301" to="663"/>
    <trip id="90" depart="1044.00" from="-654" to="1799"/>
    <trip id="91" depart="1045.00" from="-654" to="1799"/>
    <trip id="92" depart="1051.00" from="-1799" to="654"/>
    <trip id="93" depart="1066.00" from="-1799" to="663"/>
    <trip id="94" depart="1077.00" from="-663" to="1799"/>
    <trip id="95" depart="1077.00" from="301" to="663"/>
    <trip id="96" depart="1102.00" from="301" to="654"/>
    <trip id="97" depart="1112.00" from="301" to="1799"/>
    <trip id="98" depart="1122.00" from="-654" to="663"/>
    <trip id="99" depart="1127.00" from="-663" to="-301"/>
    <trip id="100" depart="1127.00" from="-1799" to="654"/>
    <trip id="101" depart="1129.00" from="-663" to="654"/>
    <trip id="102" depart="1131.00" from="-654" to="1799"/>
    <trip id="103" depart="1132.00" from="301" to="654"/>
    <trip id="104" depart="1135.00" from="-1799" to="654"/>
    <trip id="105" depart="1157.00" from="-654" to="1799"/>
    <trip id="106" depart="1181.00" from="301" to="-301"/>
    <trip id="107" depart="1198.00" from="-1799" to="654"/>
    <trip id="108" depart="1201.00" from="-1799" to="1799"/>
    <trip id="109" depart="1202.00" from="-663" to="1799"/>
    <trip id="110" depart="1216.00" from="-654" to="-353"/>
    <trip id="111" depart="1220.00" from="301" to="654"/>
    <trip id="112" depart="1224.00" from="-663" to="654"/>
    <trip id="113" depart="1250.00" from="-1799" to="-301"/>
    <trip id="114" depart="1254.00" from="301" to="1799"/>
    <trip id="115" depart="1261.00" from="-663" to="1799"/>
    <trip id="116" depart="1280.00" from="-1799" to="-301"/>
    <trip id="117" depart="1290.00" from="301" to="1799"/>
    <trip id="118" depart="1297.00" from="-1799" to="-301"/>
    <trip id="119" depart="1298.00" from="-1799" to="663"/>
    <trip id="120" depart="1315.00" from="301" to="663"/>
    <trip id="121" depart="1339.00" from="-654" to="-301"/>
    <trip id="122" depart="1345.00" from="-1799" to="-301"/>
    <trip id="123" depart="1367.00" from="301" to="-301"/>
    <trip id="124" depart="1370.00" from="-663" to="663"/>
    <trip id="125" depart="1372.00" from="-654" to="663"/>
    <trip id="126" depart="1406.00" from="-663" to="663"/>
    <trip id="127" depart="1413.00" from="-663" to="1799"/>
    <trip id="128" depart="1427.00" from="-654" to="663"/>
    <trip id="129" depart="1440.00" from="-663" to="1799"/>
    <trip id="130" depart="1458.00" from="-1799" to="-301"/>
    <trip id="131" depart="1497.00" from="-654" to="1799"/>
    <trip id="132" depart="1510.00" from="-663" to="663"/>
    <trip id="133" depart="1522.00" from="301" to="-301"/>
    <trip id="134" depart="1533.00" from="301" to="654"/>
    <trip id="135" depart="1564.00" from="-1799" to="1799"/>
    <trip id="136" depart="1590.00" from="301" to="654"/>
    <trip id="137" depart="1615.00" from="-1799" to="-301"/>
    <trip id="138" depart="1619.00" from="-1799" to="-301"/>
    <trip id="139" depart="1622.00" from="-1799" to="-301"/>
    <trip id="140" depart="1624.00" from="-663" to="654"/>
    <trip id="141" depart="1631.00" from="-654" to="-301"/>
    <trip id="142" depart="1639.00" from="301" to="1799"/>
    <trip id="143" depart="1657.00" from="301" to="663"/>
    <trip id="144" depart="1662.00" from="-654" to="654"/>
    <trip id="145" depart="1703.00" from="301" to="-301"/>
    <trip id="146" depart="1705.00" from="-654" to="1799"/>
    <trip id="147" depart="1720.00" from="-654" to="663"/>
    <trip id="148" depart="1720.00" from="301" to="1799"/>
    <trip id="149" depart="1728.00" from="-663" to="654"/>
    <trip id="150" depart="1728.00" from="-654" to="663"/>
    <trip id="151" depart="1734.00" from="-654" to="663"/>
    <trip id="152" depart="1734.00" from="-654" to="663"/>
    <trip id="153" depart="1749.00" from="-1799" to="-301"/>
    <trip id="154" depart="1761.00" from="-654" to="663"/>
    <trip id="155" depart="1770.00" from="-663" to="654"/>
    <trip id="156" depart="1776.00" from="-1799" to="-301"/>
    <trip id="157" depart="1783.00" from="301" to="663"/>
    <trip id="158" depart="1783.00" from="-663" to="1799"/>
    <trip id="159" depart="1809.00" from="-654" to="663"/>
    <trip id="160" depart="1817.00" from="301" to="663"/>
    <trip id="161" depart="1819.00" from="301" to="663"/>
    <trip id="162" depart="1832.00" from="-1799" to="-301"/>
    <trip id="163" depart="1846.00" from="-1799" to="663"/>
    <trip id="164" depart="1849.00" from="-1799" to="1799"/>
    <trip id="165" depart="1854.00" from="301" to="663"/>
    <trip id="166" depart="1877.00" from="301" to="1799"/>
    <trip id="167" depart="1880.00" from="301" to="-301"/>
    <trip id="168" depart="1888.00" from="-654" to="663"/>
    <trip id="169" depart="1892.00" from="-663" to="654"/>
    <trip id="170" depart="1902.00" from="301" to="654"/>
    <trip id="171" depart="1910.00" from="-1799" to="654"/>
    <trip id="172" depart="1918.00" from="-663" to="663"/>
    <trip id="173" depart="1919.00" from="-663" to="663"/>
    <trip id="174" depart="1928.00" from="-654" to="-301"/>
    <trip id="175" depart="1947.00" from="-1799" to="654"/>
    <trip id="176" depart="1966.00" from="-663" to="654"/>
    <trip id="177" depart="1976.00" from="-663" to="654"/>
    <trip id="178" depart="1980.00" from="-663" to="654"/>
    <trip id="179" depart="1987.00" from="-654" to="663"/>
    <trip id="180" depart="2002.00" from="-654" to="663"/>
    <trip id="181" depart="2009.00" from="-663" to="-301"/>
    <trip id="182" depart="2032.00" from="301" to="-301"/>
    <trip id="183" depart="2045.00" from="-1799" to="-353"/>
    <trip id="184" depart="2061.00" from="-663" to="663"/>
    <trip id="185" depart="2072.00" from="-663" to="654"/>
    <trip id="186" depart="2082.00" from="-654" to="654"/>
    <trip id="187" depart="2094.00" from="-1799" to="-301"/>
    <trip id="188" depart="2097.00" from="301" to="663"/>
    <trip id="189" depart="2099.00" from="301" to="663"/>
    <trip id="190" depart="2105.00" from="-654" to="-301"/>
    <trip id="191" depart="2114.00" from="301" to="-301"/>
    <trip id="192" depart="2123.00" from="301" to="-301"/>
    <trip id="193" depart="2136.00" from="301" to="654"/>
    <trip id="194" depart="2148.00" from="-654" to="1799"/>
    <trip id="195" depart="2171.00" from="301" to="1799"/>
    <trip id="196" depart="2188.00" from="301" to="654"/>
    <trip id="197" depart="2192.00" from="-654" to="663"/>
    <trip id="198" depart="2196.00" from="301" to="-301"/>
    <trip id="199" depart="2209.00" from="-654" to="-301"/>
    <trip id="200" depart="2212.00" from="-1799" to="1799"/>
    <trip id="201" depart="2230.00" from="-1799" to="663"/>
    <trip id="202" depart="2232.00" from="-1799" to="654"/>
    <trip id="203" depart="2235.00" from="-663" to="-301"/>
    <trip id="204" depart="2250.00" from="-654" to="1799"/>
    <trip id="205" depart="2265.00" from="-1799" to="1799"/>
    <trip id="206" depart="2278.00" from="-1799" to="663"/>
    <trip id="207" depart="2300.00" from="-654" to="1799"/>
    <trip id="208" depart="2307.00" from="-654" to="654"/>
    <trip id="209" depart="2309.00" from="301" to="663"/>
    <trip id="210" depart="2320.00" from="-1799" to="1799"/>
    <trip id="211" depart="2322.00" from="500" to="1799"/>
    <trip id="212" depart="2338.00" from="301" to="663"/>
    <trip id="213" depart="2344.00" from="-654" to="654"/>
    <trip id="214" depart="2345.00" from="-663" to="-301"/>
    <trip id="215" depart="2355.00" from="-654" to="654"/>
    <trip id="216" depart="2397.00" from="-1799" to="663"/>
    <trip id="217" depart="2404.00" from="-663" to="663"/>
    <trip id="218" depart="2428.00" from="301" to="663"/>
    <trip id="219" depart="2465.00" from="-1799" to="1799"/>
    <trip id="220" depart="2487.00" from="301" to="-301"/>
    <trip id="221" depart="2497.00" from="-1799" to="1799"/>
    <trip id="222" depart="2500.00" from="-1799" to="654"/>
    <trip id="223" depart="2516.00" from="-663" to="663"/>
    <trip id="224" depart="2522.00" from="301" to="-301"/>
    <trip id="225" depart="2527.00" from="301" to="654"/>
    <trip id="226" depart="2529.00" from="-654" to="-301"/>
    <trip id="227" depart="2532.00" from="-654" to="1799"/>
    <trip id="228" depart="2540.00" from="-663" to="663"/>
    <trip id="229" depart="2553.00" from="-654" to="-301"/>
    <trip id="230" depart="2576.00" from="-654" to="654"/>
    <trip id="231" depart="2577.00" from="-654" to="-301"/>
    <trip id="232" depart="2587.00" from="301" to="663"/>
    <trip id="233" depart="2592.00" from="-654" to="1799"/>
    <trip id="234" depart="2611.00" from="-654" to="1799"/>
    <trip id="235" depart="2613.00" from="301" to="1799"/>
    <trip id="236" depart="2622.00" from="-1799" to="663"/>
    <trip id="237" depart="2639.00" from="-654" to="654"/>
    <trip id="238" depart="2650.00" from="-654" to="654"/>
    <trip id="239" depart="2658.00" from="301" to="1799"/>
    <trip id="240" depart="2664.00" from="-654" to="-301"/>
    <trip id="241" depart="2666.00" from="-654" to="-301"/>
    <trip id="242" depart="2668.00" from="-654" to="1799"/>
    <trip id="243" depart="2675.00" from="301" to="654"/>
    <trip id="244" depart="2697.00" from="-1799" to="654"/>
    <trip id="245" depart="2700.00" from="-654" to="654"/>
    <trip id="246" depart="2719.00" from="301" to="1799"/>
    <trip id="247" depart="2737.00" from="301" to="654"/>
    <trip id="248" depart="2755.00" from="-663" to="-301"/>
    <trip id="249" depart="2767.00" from="301" to="-301"/>
    <trip id="250" depart="2771.00" from="-1799" to="1799"/>
    <trip id="251" depart="2773.00" from="-654" to="-301"/>
    <trip id="252" depart="2781.00" from="-663" to="-301"/>
    <trip id="253" depart="2781.00" from="-1799" to="1799"/>
    <trip id="254" depart="2797.00" from="301" to="1799"/>
    <trip id="255" depart="2812.00" from="301" to="-301"/>
    <trip id="256" depart="2838.00" from="-663" to="1799"/>
    <trip id="257" depart="2845.00" from="500" to="654"/>
    <trip id="258" depart="2853.00" from="-1799" to="1799"/>
    <trip id="259" depart="2874.00" from="301" to="-301"/>
    <trip id="260" depart="2895.00" from="-1799" to="-301"/>
    <trip id="261" depart="2915.00" from="-663" to="654"/>
    <trip id="262" depart="2924.00" from="-663" to="663"/>
    <trip id="263" depart="2926.00" from="-654" to="-301"/>
    <trip id="264" depart="2944.00" from="-1799" to="654"/>
    <trip id="265" depart="2954.00" from="301" to="-301"/>
    <trip id="266" depart="2954.00" from="-1799" to="663"/>
    <trip id="267" depart="2990.00" from="301" to="-301"/>
    <trip id="268" depart="3007.00" from="301" to="-301"/>
    <trip id="269" depart="3016.00" from="-663" to="663"/>
    <trip id="270" depart="3023.00" from="301" to="1799"/>
    <trip id="271" depart="3029.00" from="-654" to="663"/>
    <trip id="272" depart="3037.00" from="-1799" to="663"/>
    <trip id="273" depart="3041.00" from="301" to="-301"/>
    <trip id="274" depart="3045.00" from="-1799" to="-301"/>
    <trip id="275" depart="3053.00" from="-663" to="-301"/>
    <trip id="276" depart="3061.00" from="-1799" to="1799"/>
    <trip id="277" depart="3062.00" from="301" to="654"/>
    <trip id="278" depart="3064.00" from="-654" to="1799"/>
    <trip id="279" depart="3069.00" from="-654" to="-301"/>
    <trip id="280" depart="3078.00" from="-663" to="-301"/>
    <trip id="281" depart="3088.00" from="-654" to="-301"/>
    <trip id="282" depart="3108.00" from="301" to="1799"/>
    <trip id="283" depart="3110.00" from="-663" to="654"/>
    <trip id="284" depart="3125.00" from="-1799" to="-301"/>
    <trip id="285" depart="3125.00" from="-654" to="-301"/>
    <trip id="286" depart="3133.00" from="-663" to="-301"/>
    <trip id="287" depart="3136.00" from="301" to="654"/>
    <trip id="288" depart="3159.00" from="301" to="500"/>
    <trip id="289" depart="3162.00" from="-1799" to="-301"/>
    <trip id="290" depart="3175.00" from="-1799" to="663"/>
    <trip id="291" depart="3181.00" from="301" to="663"/>
    <trip id="292" depart="3186.00" from="-663" to="654"/>
    <trip id="293" depart="3194.00" from="-1799" to="663"/>
    <trip id="294" depart="3195.00" from="301" to="-301"/>
    <trip id="295" depart="3227.00" from="-1799" to="663"/>
    <trip id="296" depart="3234.00" from="-654" to="654"/>
    <trip id="297" depart="3252.00" from="301" to="-301"/>
    <trip id="298" depart="3268.00" from="301" to="663"/>
    <trip id="299" depart="3269.00" from="-663" to="-301"/>
    <trip id="300" depart="3273.00" from="-654" to="663"/>
    <trip id="301" depart="3280.00" from="-654" to="654"/>
    <trip id="302" depart="3282.00" from="-1799" to="1799"/>
    <trip id="303" depart="3290.00" from="-1799" to="654"/>
    <trip id="304" depart="3290.00" from="-654" to="663"/>
    <trip id="305" depart="3300.00" from="-1799" to="663"/>
    <trip id="306" depart="3320.00" from="-663" to="1799"/>
    <trip id="307" depart="3322.00" from="-1799" to="-301"/>
    <trip id="308" depart="3345.00" from="301" to="663"/>
    <trip id="309" depart="3349.00" from="-654" to="663"/>
    <trip id="310" depart="3368.00" from="-1799" to="654"/>
    <trip id="311" depart="3372.00" from="-1799" to="663"/>
    <trip id="312" depart="3386.00" from="-654" to="663"/>
    <trip id="313" depart="3396.00" from="301" to="1799"/>
    <trip id="314" depart="3409.00" from="-1799" to="654"/>
    <trip id="315" depart="3411.00" from="-663" to="1799"/>
    <trip id="316" depart="3421.00" from="-1799" to="-301"/>
    <trip id="317" depart="3440.00" from="301" to="1799"/>
    <trip id="318" depart="3441.00" from="-1799" to="-301"/>
    <trip id="319" depart="3458.00" from="-663" to="663"/>
    <trip id="320" depart="3488.00" from="-1799" to="654"/>
    <trip id="321" depart="3488.00" from="301" to="-301"/>
    <trip id="322" depart="3498.00" from="-654" to="-301"/>
    <trip id="323" depart="3505.00" from="-663" to="654"/>
    <trip id="324" depart="3508.00" from="-663" to="1799"/>
    <trip id="325" depart="3521.00" from="-1799" to="1799"/>
    <trip id="326" depart="3538.00" from="-1799" to="663"/>
    <trip id="327" depart="3543.00" from="-663" to="-301"/>
    <trip id="328" depart="3555.00" from="-1799" to="-301"/>
    <trip id="329" depart="3568.00" from="301" to="654"/>
    <trip id="330" depart="3582.00" from="-663" to="-301"/>
    <trip id="331" depart="3587.00" from="301" to="1799"/>
    <trip id="332" depart="3587.00" from="-654" to="1799"/>
    <trip id="333" depart="3599.00" from="-663" to="654"/>
</routes>
