<?xml version="1.0" encoding="UTF-8"?>

<!-- generated on 2025-03-04 13:48:44 by Eclipse SUMO netedit Version 1.20.0
<configuration xmlns:xsi="http://www.w3.org/2001/XMLSchema-instance" xsi:noNamespaceSchemaLocation="http://sumo.dlr.de/xsd/neteditConfiguration.xsd">

    <input>
        <sumo-net-file value="/Users/rohitbokade/Desktop/random_subnetworks/random_subnetwork_1.net.xml"/>
    </input>

    <output>
        <output-file value="/Users/rohitbokade/Desktop/random_subnetworks/random_subnetwork_1.net.xml"/>
    </output>

    <processing>
        <geometry.min-radius.fix.railways value="false"/>
        <geometry.max-grade.fix value="false"/>
        <offset.disable-normalization value="true"/>
        <lefthand value="0"/>
    </processing>

    <junctions>
        <no-turnarounds value="true"/>
        <junctions.corner-detail value="5"/>
        <junctions.limit-turn-speed value="5.50"/>
        <rectangular-lane-cut value="0"/>
    </junctions>

    <pedestrian>
        <walkingareas value="0"/>
    </pedestrian>

</configuration>
-->

<net version="1.20" junctionCornerDetail="5" limitTurnSpeed="5.50" xmlns:xsi="http://www.w3.org/2001/XMLSchema-instance" xsi:noNamespaceSchemaLocation="http://sumo.dlr.de/xsd/net_file.xsd">

    <location netOffset="2000.00,1800.00" convBoundary="0.00,600.00,1800.00,1400.00" origBoundary="-2000.00,-1800.00,800.00,1200.00" projParameter="!"/>

    <edge id=":1088_0" function="internal">
        <lane id=":1088_0_0" index="0" speed="13.89" length="0.10" shape="400.00,804.80 400.00,804.80"/>
        <lane id=":1088_0_1" index="1" speed="13.89" length="0.10" shape="400.00,801.60 400.00,801.60"/>
    </edge>
    <edge id=":1088_2" function="internal">
        <lane id=":1088_2_0" index="0" speed="13.89" length="0.10" shape="400.00,795.20 400.00,795.20"/>
        <lane id=":1088_2_1" index="1" speed="13.89" length="0.10" shape="400.00,798.40 400.00,798.40"/>
    </edge>
    <edge id=":1567_0" function="internal">
        <lane id=":1567_0_0" index="0" speed="3.65" length="4.67" shape="0.00,801.60 -1.20,800.80 -1.60,800.00 -1.20,799.20 0.00,798.40"/>
    </edge>
    <edge id=":1689_0" function="internal">
        <lane id=":1689_0_0" index="0" speed="3.65" length="4.67" shape="1200.00,601.60 1198.80,600.80 1198.40,600.00 1198.80,599.20 1200.00,598.40"/>
    </edge>
    <edge id=":274_0" function="internal">
        <lane id=":274_0_0" index="0" speed="3.65" length="4.67" shape="1800.00,998.40 1801.20,999.20 1801.60,1000.00 1801.20,1000.80 1800.00,1001.60"/>
    </edge>
    <edge id=":337_0" function="internal">
        <lane id=":337_0_0" index="0" speed="6.51" length="9.03" shape="1395.20,1010.40 1394.85,1007.95 1393.80,1006.20 1392.05,1005.15 1389.60,1004.80"/>
    </edge>
    <edge id=":337_1" function="internal">
        <lane id=":337_1_0" index="0" speed="13.89" length="20.80" shape="1395.20,1010.40 1395.20,989.60"/>
        <lane id=":337_1_1" index="1" speed="13.89" length="20.80" shape="1398.40,1010.40 1398.40,989.60"/>
    </edge>
    <edge id=":337_3" function="internal">
        <lane id=":337_3_0" index="0" speed="9.26" length="5.01" shape="1398.40,1010.40 1399.11,1005.44"/>
    </edge>
    <edge id=":337_4" function="internal">
        <lane id=":337_4_0" index="0" speed="3.65" length="1.44" shape="1398.40,1010.40 1399.20,1009.20"/>
    </edge>
    <edge id=":337_20" function="internal">
        <lane id=":337_20_0" index="0" speed="9.26" length="14.34" shape="1399.11,1005.44 1399.15,1005.15 1401.40,1001.40 1405.15,999.15 1410.40,998.40"/>
    </edge>
    <edge id=":337_21" function="internal">
        <lane id=":337_21_0" index="0" speed="3.65" length="3.23" shape="1399.20,1009.20 1400.00,1008.80 1400.80,1009.20 1401.60,1010.40"/>
    </edge>
    <edge id=":337_5" function="internal">
        <lane id=":337_5_0" index="0" speed="6.51" length="9.03" shape="1410.40,1004.80 1407.95,1005.15 1406.20,1006.20 1405.15,1007.95 1404.80,1010.40"/>
    </edge>
    <edge id=":337_6" function="internal">
        <lane id=":337_6_0" index="0" speed="13.89" length="20.80" shape="1410.40,1004.80 1389.60,1004.80"/>
        <lane id=":337_6_1" index="1" speed="13.89" length="20.80" shape="1410.40,1001.60 1389.60,1001.60"/>
    </edge>
    <edge id=":337_8" function="internal">
        <lane id=":337_8_0" index="0" speed="9.26" length="5.01" shape="1410.40,1001.60 1405.44,1000.89"/>
    </edge>
    <edge id=":337_9" function="internal">
        <lane id=":337_9_0" index="0" speed="3.65" length="1.44" shape="1410.40,1001.60 1409.20,1000.80"/>
    </edge>
    <edge id=":337_22" function="internal">
        <lane id=":337_22_0" index="0" speed="9.26" length="14.34" shape="1405.44,1000.89 1405.15,1000.85 1401.40,998.60 1399.15,994.85 1398.40,989.60"/>
    </edge>
    <edge id=":337_23" function="internal">
        <lane id=":337_23_0" index="0" speed="3.65" length="3.23" shape="1409.20,1000.80 1408.80,1000.00 1409.20,999.20 1410.40,998.40"/>
    </edge>
    <edge id=":337_10" function="internal">
        <lane id=":337_10_0" index="0" speed="6.51" length="9.03" shape="1404.80,989.60 1405.15,992.05 1406.20,993.80 1407.95,994.85 1410.40,995.20"/>
    </edge>
    <edge id=":337_11" function="internal">
        <lane id=":337_11_0" index="0" speed="13.89" length="20.80" shape="1404.80,989.60 1404.80,1010.40"/>
        <lane id=":337_11_1" index="1" speed="13.89" length="20.80" shape="1401.60,989.60 1401.60,1010.40"/>
    </edge>
    <edge id=":337_13" function="internal">
        <lane id=":337_13_0" index="0" speed="9.26" length="5.01" shape="1401.60,989.60 1400.89,994.56"/>
    </edge>
    <edge id=":337_14" function="internal">
        <lane id=":337_14_0" index="0" speed="3.65" length="1.44" shape="1401.60,989.60 1400.80,990.80"/>
    </edge>
    <edge id=":337_24" function="internal">
        <lane id=":337_24_0" index="0" speed="9.26" length="14.34" shape="1400.89,994.56 1400.85,994.85 1398.60,998.60 1394.85,1000.85 1389.60,1001.60"/>
    </edge>
    <edge id=":337_25" function="internal">
        <lane id=":337_25_0" index="0" speed="3.65" length="3.23" shape="1400.80,990.80 1400.00,991.20 1399.20,990.80 1398.40,989.60"/>
    </edge>
    <edge id=":337_15" function="internal">
        <lane id=":337_15_0" index="0" speed="6.51" length="9.03" shape="1389.60,995.20 1392.05,994.85 1393.80,993.80 1394.85,992.05 1395.20,989.60"/>
    </edge>
    <edge id=":337_16" function="internal">
        <lane id=":337_16_0" index="0" speed="13.89" length="20.80" shape="1389.60,995.20 1410.40,995.20"/>
        <lane id=":337_16_1" index="1" speed="13.89" length="20.80" shape="1389.60,998.40 1410.40,998.40"/>
    </edge>
    <edge id=":337_18" function="internal">
        <lane id=":337_18_0" index="0" speed="9.26" length="5.01" shape="1389.60,998.40 1394.56,999.11"/>
    </edge>
    <edge id=":337_19" function="internal">
        <lane id=":337_19_0" index="0" speed="3.65" length="1.44" shape="1389.60,998.40 1390.80,999.20"/>
    </edge>
    <edge id=":337_26" function="internal">
        <lane id=":337_26_0" index="0" speed="9.26" length="14.34" shape="1394.56,999.11 1394.85,999.15 1398.60,1001.40 1400.85,1005.15 1401.60,1010.40"/>
    </edge>
    <edge id=":337_27" function="internal">
        <lane id=":337_27_0" index="0" speed="3.65" length="3.23" shape="1390.80,999.20 1391.20,1000.00 1390.80,1000.80 1389.60,1001.60"/>
    </edge>
    <edge id=":484_0" function="internal">
        <lane id=":484_0_0" index="0" speed="6.51" length="9.03" shape="995.20,1010.40 994.85,1007.95 993.80,1006.20 992.05,1005.15 989.60,1004.80"/>
    </edge>
    <edge id=":484_1" function="internal">
        <lane id=":484_1_0" index="0" speed="13.89" length="20.80" shape="995.20,1010.40 995.20,989.60"/>
        <lane id=":484_1_1" index="1" speed="13.89" length="20.80" shape="998.40,1010.40 998.40,989.60"/>
    </edge>
    <edge id=":484_3" function="internal">
        <lane id=":484_3_0" index="0" speed="9.26" length="5.01" shape="998.40,1010.40 999.11,1005.44"/>
    </edge>
    <edge id=":484_4" function="internal">
        <lane id=":484_4_0" index="0" speed="3.65" length="1.44" shape="998.40,1010.40 999.20,1009.20"/>
    </edge>
    <edge id=":484_20" function="internal">
        <lane id=":484_20_0" index="0" speed="9.26" length="14.34" shape="999.11,1005.44 999.15,1005.15 1001.40,1001.40 1005.15,999.15 1010.40,998.40"/>
    </edge>
    <edge id=":484_21" function="internal">
        <lane id=":484_21_0" index="0" speed="3.65" length="3.23" shape="999.20,1009.20 1000.00,1008.80 1000.80,1009.20 1001.60,1010.40"/>
    </edge>
    <edge id=":484_5" function="internal">
        <lane id=":484_5_0" index="0" speed="6.51" length="9.03" shape="1010.40,1004.80 1007.95,1005.15 1006.20,1006.20 1005.15,1007.95 1004.80,1010.40"/>
    </edge>
    <edge id=":484_6" function="internal">
        <lane id=":484_6_0" index="0" speed="13.89" length="20.80" shape="1010.40,1004.80 989.60,1004.80"/>
        <lane id=":484_6_1" index="1" speed="13.89" length="20.80" shape="1010.40,1001.60 989.60,1001.60"/>
    </edge>
    <edge id=":484_8" function="internal">
        <lane id=":484_8_0" index="0" speed="9.26" length="5.01" shape="1010.40,1001.60 1005.44,1000.89"/>
    </edge>
    <edge id=":484_9" function="internal">
        <lane id=":484_9_0" index="0" speed="3.65" length="1.44" shape="1010.40,1001.60 1009.20,1000.80"/>
    </edge>
    <edge id=":484_22" function="internal">
        <lane id=":484_22_0" index="0" speed="9.26" length="14.34" shape="1005.44,1000.89 1005.15,1000.85 1001.40,998.60 999.15,994.85 998.40,989.60"/>
    </edge>
    <edge id=":484_23" function="internal">
        <lane id=":484_23_0" index="0" speed="3.65" length="3.23" shape="1009.20,1000.80 1008.80,1000.00 1009.20,999.20 1010.40,998.40"/>
    </edge>
    <edge id=":484_10" function="internal">
        <lane id=":484_10_0" index="0" speed="6.51" length="9.03" shape="1004.80,989.60 1005.15,992.05 1006.20,993.80 1007.95,994.85 1010.40,995.20"/>
    </edge>
    <edge id=":484_11" function="internal">
        <lane id=":484_11_0" index="0" speed="13.89" length="20.80" shape="1004.80,989.60 1004.80,1010.40"/>
        <lane id=":484_11_1" index="1" speed="13.89" length="20.80" shape="1001.60,989.60 1001.60,1010.40"/>
    </edge>
    <edge id=":484_13" function="internal">
        <lane id=":484_13_0" index="0" speed="9.26" length="5.01" shape="1001.60,989.60 1000.89,994.56"/>
    </edge>
    <edge id=":484_14" function="internal">
        <lane id=":484_14_0" index="0" speed="3.65" length="1.44" shape="1001.60,989.60 1000.80,990.80"/>
    </edge>
    <edge id=":484_24" function="internal">
        <lane id=":484_24_0" index="0" speed="9.26" length="14.34" shape="1000.89,994.56 1000.85,994.85 998.60,998.60 994.85,1000.85 989.60,1001.60"/>
    </edge>
    <edge id=":484_25" function="internal">
        <lane id=":484_25_0" index="0" speed="3.65" length="3.23" shape="1000.80,990.80 1000.00,991.20 999.20,990.80 998.40,989.60"/>
    </edge>
    <edge id=":484_15" function="internal">
        <lane id=":484_15_0" index="0" speed="6.51" length="9.03" shape="989.60,995.20 992.05,994.85 993.80,993.80 994.85,992.05 995.20,989.60"/>
    </edge>
    <edge id=":484_16" function="internal">
        <lane id=":484_16_0" index="0" speed="13.89" length="20.80" shape="989.60,995.20 1010.40,995.20"/>
        <lane id=":484_16_1" index="1" speed="13.89" length="20.80" shape="989.60,998.40 1010.40,998.40"/>
    </edge>
    <edge id=":484_18" function="internal">
        <lane id=":484_18_0" index="0" speed="9.26" length="5.01" shape="989.60,998.40 994.56,999.11"/>
    </edge>
    <edge id=":484_19" function="internal">
        <lane id=":484_19_0" index="0" speed="3.65" length="1.44" shape="989.60,998.40 990.80,999.20"/>
    </edge>
    <edge id=":484_26" function="internal">
        <lane id=":484_26_0" index="0" speed="9.26" length="14.34" shape="994.56,999.11 994.85,999.15 998.60,1001.40 1000.85,1005.15 1001.60,1010.40"/>
    </edge>
    <edge id=":484_27" function="internal">
        <lane id=":484_27_0" index="0" speed="3.65" length="3.23" shape="990.80,999.20 991.20,1000.00 990.80,1000.80 989.60,1001.60"/>
    </edge>
    <edge id=":530_0" function="internal">
        <lane id=":530_0_0" index="0" speed="3.65" length="4.67" shape="998.40,600.00 999.20,598.80 1000.00,598.40 1000.80,598.80 1001.60,600.00"/>
    </edge>
    <edge id=":532_0" function="internal">
        <lane id=":532_0_0" index="0" speed="13.89" length="20.80" shape="610.40,1004.80 589.60,1004.80"/>
        <lane id=":532_0_1" index="1" speed="13.89" length="20.80" shape="610.40,1001.60 589.60,1001.60"/>
    </edge>
    <edge id=":532_2" function="internal">
        <lane id=":532_2_0" index="0" speed="9.26" length="5.01" shape="610.40,1001.60 605.44,1000.89"/>
    </edge>
    <edge id=":532_3" function="internal">
        <lane id=":532_3_0" index="0" speed="3.65" length="1.44" shape="610.40,1001.60 609.20,1000.80"/>
    </edge>
    <edge id=":532_12" function="internal">
        <lane id=":532_12_0" index="0" speed="9.26" length="14.34" shape="605.44,1000.89 605.15,1000.85 601.40,998.60 599.15,994.85 598.40,989.60"/>
    </edge>
    <edge id=":532_13" function="internal">
        <lane id=":532_13_0" index="0" speed="3.65" length="3.23" shape="609.20,1000.80 608.80,1000.00 609.20,999.20 610.40,998.40"/>
    </edge>
    <edge id=":532_4" function="internal">
        <lane id=":532_4_0" index="0" speed="6.51" length="9.03" shape="604.80,989.60 605.15,992.05 606.20,993.80 607.95,994.85 610.40,995.20"/>
        <lane id=":532_4_1" index="1" speed="8.00" length="14.19" shape="601.60,989.60 602.15,993.45 603.80,996.20 606.55,997.85 610.40,998.40"/>
    </edge>
    <edge id=":532_6" function="internal">
        <lane id=":532_6_0" index="0" speed="9.26" length="19.35" shape="601.60,989.60 600.85,994.85 598.60,998.60 594.85,1000.85 589.60,1001.60"/>
    </edge>
    <edge id=":532_7" function="internal">
        <lane id=":532_7_0" index="0" speed="3.65" length="2.34" shape="601.60,989.60 600.80,990.80 600.00,991.20"/>
    </edge>
    <edge id=":532_14" function="internal">
        <lane id=":532_14_0" index="0" speed="3.65" length="2.34" shape="600.00,991.20 599.20,990.80 598.40,989.60"/>
    </edge>
    <edge id=":532_8" function="internal">
        <lane id=":532_8_0" index="0" speed="6.51" length="9.03" shape="589.60,995.20 592.05,994.85 593.80,993.80 594.85,992.05 595.20,989.60"/>
    </edge>
    <edge id=":532_9" function="internal">
        <lane id=":532_9_0" index="0" speed="13.89" length="20.80" shape="589.60,995.20 610.40,995.20"/>
        <lane id=":532_9_1" index="1" speed="13.89" length="20.80" shape="589.60,998.40 610.40,998.40"/>
    </edge>
    <edge id=":532_11" function="internal">
        <lane id=":532_11_0" index="0" speed="3.65" length="1.44" shape="589.60,998.40 590.80,999.20"/>
    </edge>
    <edge id=":532_15" function="internal">
        <lane id=":532_15_0" index="0" speed="3.65" length="3.23" shape="590.80,999.20 591.20,1000.00 590.80,1000.80 589.60,1001.60"/>
    </edge>
    <edge id=":538_0" function="internal">
        <lane id=":538_0_0" index="0" speed="3.65" length="4.67" shape="1001.60,1400.00 1000.80,1401.20 1000.00,1401.60 999.20,1401.20 998.40,1400.00"/>
    </edge>
    <edge id=":540_0" function="internal">
        <lane id=":540_0_0" index="0" speed="3.90" length="2.58" shape="1395.20,606.40 1395.10,605.70 1394.80,605.20 1394.30,604.90 1393.60,604.80"/>
        <lane id=":540_0_1" index="1" speed="6.08" length="7.74" shape="1398.40,606.40 1398.10,604.30 1397.20,602.80 1395.70,601.90 1393.60,601.60"/>
    </edge>
    <edge id=":540_2" function="internal">
        <lane id=":540_2_0" index="0" speed="8.96" length="18.06" shape="1393.60,595.20 1398.50,595.90 1402.00,598.00 1404.10,601.50 1404.80,606.40"/>
        <lane id=":540_2_1" index="1" speed="7.66" length="12.90" shape="1393.60,598.40 1397.10,598.90 1399.60,600.40 1401.10,602.90 1401.60,606.40"/>
    </edge>
    <edge id=":936_0" function="internal">
        <lane id=":936_0_0" index="0" speed="3.90" length="2.58" shape="595.20,806.40 595.10,805.70 594.80,805.20 594.30,804.90 593.60,804.80"/>
        <lane id=":936_0_1" index="1" speed="6.08" length="7.74" shape="598.40,806.40 598.10,804.30 597.20,802.80 595.70,801.90 593.60,801.60"/>
    </edge>
    <edge id=":936_2" function="internal">
        <lane id=":936_2_0" index="0" speed="8.96" length="18.06" shape="593.60,795.20 598.50,795.90 602.00,798.00 604.10,801.50 604.80,806.40"/>
        <lane id=":936_2_1" index="1" speed="7.66" length="12.90" shape="593.60,798.40 597.10,798.90 599.60,800.40 601.10,802.90 601.60,806.40"/>
    </edge>
    <edge id=":938_0" function="internal">
        <lane id=":938_0_0" index="0" speed="3.65" length="4.67" shape="200.00,1001.60 198.80,1000.80 198.40,1000.00 198.80,999.20 200.00,998.40"/>
    </edge>
    <edge id=":942_0" function="internal">
        <lane id=":942_0_0" index="0" speed="3.65" length="4.67" shape="1401.60,1400.00 1400.80,1401.20 1400.00,1401.60 1399.20,1401.20 1398.40,1400.00"/>
    </edge>

    <edge id="-1089" from="1088" to="936" priority="-1">
        <lane id="-1089_0" index="0" speed="13.89" length="193.60" shape="400.00,795.20 593.60,795.20"/>
        <lane id="-1089_1" index="1" speed="13.89" length="193.60" shape="400.00,798.40 593.60,798.40"/>
    </edge>
    <edge id="-1092" from="337" to="942" priority="-1">
        <lane id="-1092_0" index="0" speed="13.89" length="389.60" shape="1404.80,1010.40 1404.80,1400.00"/>
        <lane id="-1092_1" index="1" speed="13.89" length="389.60" shape="1401.60,1010.40 1401.60,1400.00"/>
    </edge>
    <edge id="-1568" from="1567" to="1088" priority="-1">
        <lane id="-1568_0" index="0" speed="13.89" length="400.00" shape="0.00,795.20 400.00,795.20"/>
        <lane id="-1568_1" index="1" speed="13.89" length="400.00" shape="0.00,798.40 400.00,798.40"/>
    </edge>
    <edge id="-1690" from="1689" to="540" priority="-1">
        <lane id="-1690_0" index="0" speed="13.89" length="193.60" shape="1200.00,595.20 1393.60,595.20"/>
        <lane id="-1690_1" index="1" speed="13.89" length="193.60" shape="1200.00,598.40 1393.60,598.40"/>
    </edge>
    <edge id="-338" from="337" to="274" priority="-1">
        <lane id="-338_0" index="0" speed="13.89" length="389.60" shape="1410.40,995.20 1800.00,995.20"/>
        <lane id="-338_1" index="1" speed="13.89" length="389.60" shape="1410.40,998.40 1800.00,998.40"/>
    </edge>
    <edge id="-485" from="484" to="337" priority="-1">
        <lane id="-485_0" index="0" speed="13.89" length="379.20" shape="1010.40,995.20 1389.60,995.20"/>
        <lane id="-485_1" index="1" speed="13.89" length="379.20" shape="1010.40,998.40 1389.60,998.40"/>
    </edge>
    <edge id="-531" from="530" to="484" priority="-1">
        <lane id="-531_0" index="0" speed="13.89" length="389.60" shape="1004.80,600.00 1004.80,989.60"/>
        <lane id="-531_1" index="1" speed="13.89" length="389.60" shape="1001.60,600.00 1001.60,989.60"/>
    </edge>
    <edge id="-533" from="532" to="484" priority="-1">
        <lane id="-533_0" index="0" speed="13.89" length="379.20" shape="610.40,995.20 989.60,995.20"/>
        <lane id="-533_1" index="1" speed="13.89" length="379.20" shape="610.40,998.40 989.60,998.40"/>
    </edge>
    <edge id="-539" from="538" to="484" priority="-1">
        <lane id="-539_0" index="0" speed="13.89" length="389.60" shape="995.20,1400.00 995.20,1010.40"/>
        <lane id="-539_1" index="1" speed="13.89" length="389.60" shape="998.40,1400.00 998.40,1010.40"/>
    </edge>
    <edge id="-541" from="540" to="337" priority="-1">
        <lane id="-541_0" index="0" speed="13.89" length="383.20" shape="1404.80,606.40 1404.80,989.60"/>
        <lane id="-541_1" index="1" speed="13.89" length="383.20" shape="1401.60,606.40 1401.60,989.60"/>
    </edge>
    <edge id="-937" from="936" to="532" priority="-1">
        <lane id="-937_0" index="0" speed="13.89" length="183.20" shape="604.80,806.40 604.80,989.60"/>
        <lane id="-937_1" index="1" speed="13.89" length="183.20" shape="601.60,806.40 601.60,989.60"/>
    </edge>
    <edge id="-939" from="938" to="532" priority="-1">
        <lane id="-939_0" index="0" speed="13.89" length="389.60" shape="200.00,995.20 589.60,995.20"/>
        <lane id="-939_1" index="1" speed="13.89" length="389.60" shape="200.00,998.40 589.60,998.40"/>
    </edge>
    <edge id="1089" from="936" to="1088" priority="-1">
        <lane id="1089_0" index="0" speed="13.89" length="193.60" shape="593.60,804.80 400.00,804.80"/>
        <lane id="1089_1" index="1" speed="13.89" length="193.60" shape="593.60,801.60 400.00,801.60"/>
    </edge>
    <edge id="1092" from="942" to="337" priority="-1">
        <lane id="1092_0" index="0" speed="13.89" length="389.60" shape="1395.20,1400.00 1395.20,1010.40"/>
        <lane id="1092_1" index="1" speed="13.89" length="389.60" shape="1398.40,1400.00 1398.40,1010.40"/>
    </edge>
    <edge id="1568" from="1088" to="1567" priority="-1">
        <lane id="1568_0" index="0" speed="13.89" length="400.00" shape="400.00,804.80 0.00,804.80"/>
        <lane id="1568_1" index="1" speed="13.89" length="400.00" shape="400.00,801.60 0.00,801.60"/>
    </edge>
    <edge id="1690" from="540" to="1689" priority="-1">
        <lane id="1690_0" index="0" speed="13.89" length="193.60" shape="1393.60,604.80 1200.00,604.80"/>
        <lane id="1690_1" index="1" speed="13.89" length="193.60" shape="1393.60,601.60 1200.00,601.60"/>
    </edge>
    <edge id="338" from="274" to="337" priority="-1">
        <lane id="338_0" index="0" speed="13.89" length="389.60" shape="1800.00,1004.80 1410.40,1004.80"/>
        <lane id="338_1" index="1" speed="13.89" length="389.60" shape="1800.00,1001.60 1410.40,1001.60"/>
    </edge>
    <edge id="485" from="337" to="484" priority="-1">
        <lane id="485_0" index="0" speed="13.89" length="379.20" shape="1389.60,1004.80 1010.40,1004.80"/>
        <lane id="485_1" index="1" speed="13.89" length="379.20" shape="1389.60,1001.60 1010.40,1001.60"/>
    </edge>
    <edge id="531" from="484" to="530" priority="-1">
        <lane id="531_0" index="0" speed="13.89" length="389.60" shape="995.20,989.60 995.20,600.00"/>
        <lane id="531_1" index="1" speed="13.89" length="389.60" shape="998.40,989.60 998.40,600.00"/>
    </edge>
    <edge id="533" from="484" to="532" priority="-1">
        <lane id="533_0" index="0" speed="13.89" length="379.20" shape="989.60,1004.80 610.40,1004.80"/>
        <lane id="533_1" index="1" speed="13.89" length="379.20" shape="989.60,1001.60 610.40,1001.60"/>
    </edge>
    <edge id="539" from="484" to="538" priority="-1">
        <lane id="539_0" index="0" speed="13.89" length="389.60" shape="1004.80,1010.40 1004.80,1400.00"/>
        <lane id="539_1" index="1" speed="13.89" length="389.60" shape="1001.60,1010.40 1001.60,1400.00"/>
    </edge>
    <edge id="541" from="337" to="540" priority="-1">
        <lane id="541_0" index="0" speed="13.89" length="383.20" shape="1395.20,989.60 1395.20,606.40"/>
        <lane id="541_1" index="1" speed="13.89" length="383.20" shape="1398.40,989.60 1398.40,606.40"/>
    </edge>
    <edge id="937" from="532" to="936" priority="-1">
        <lane id="937_0" index="0" speed="13.89" length="183.20" shape="595.20,989.60 595.20,806.40"/>
        <lane id="937_1" index="1" speed="13.89" length="183.20" shape="598.40,989.60 598.40,806.40"/>
    </edge>
    <edge id="939" from="532" to="938" priority="-1">
        <lane id="939_0" index="0" speed="13.89" length="389.60" shape="589.60,1004.80 200.00,1004.80"/>
        <lane id="939_1" index="1" speed="13.89" length="389.60" shape="589.60,1001.60 200.00,1001.60"/>
    </edge>

    <tlLogic id="337" type="static" programID="0" offset="0">
        <phase duration="42" state="rrrrrGGGggrrrrrGGGgg"/>
        <phase duration="3"  state="rrrrryyyyyrrrrryyyyy"/>
        <phase duration="42" state="GGGggrrrrrGGGggrrrrr"/>
        <phase duration="3"  state="yyyyyrrrrryyyyyrrrrr"/>
    </tlLogic>
    <tlLogic id="484" type="static" programID="0" offset="0">
        <phase duration="42" state="GGGggrrrrrGGGggrrrrr"/>
        <phase duration="3"  state="yyyyyrrrrryyyyyrrrrr"/>
        <phase duration="42" state="rrrrrGGGggrrrrrGGGgg"/>
        <phase duration="3"  state="rrrrryyyyyrrrrryyyyy"/>
    </tlLogic>
    <tlLogic id="532" type="static" programID="0" offset="0">
        <phase duration="42" state="GGggrrrrGGGg"/>
        <phase duration="3"  state="yyyyrrrrGyyy"/>
        <phase duration="42" state="rrrrGGGgGrrr"/>
        <phase duration="3"  state="rrrryyyyGrrr"/>
    </tlLogic>

    <junction id="1088" type="priority" x="400.00" y="800.00" incLanes="1089_0 1089_1 -1568_0 -1568_1" intLanes=":1088_0_0 :1088_0_1 :1088_2_0 :1088_2_1" shape="400.00,806.40 400.00,793.60 400.00,806.40">
        <request index="0" response="0000" foes="0000" cont="0"/>
        <request index="1" response="0000" foes="0000" cont="0"/>
        <request index="2" response="0000" foes="0000" cont="0"/>
        <request index="3" response="0000" foes="0000" cont="0"/>
    </junction>
    <junction id="1567" type="priority" x="0.00" y="800.00" incLanes="1568_0 1568_1" intLanes=":1567_0_0" shape="0.00,800.00 0.00,806.40 0.00,800.00" fringe="outer">
        <request index="0" response="0" foes="0" cont="0"/>
    </junction>
    <junction id="1689" type="priority" x="1200.00" y="600.00" incLanes="1690_0 1690_1" intLanes=":1689_0_0" shape="1200.00,600.00 1200.00,606.40 1200.00,600.00">
        <request index="0" response="0" foes="0" cont="0"/>
    </junction>
    <junction id="274" type="priority" x="1800.00" y="1000.00" incLanes="-338_0 -338_1" intLanes=":274_0_0" shape="1800.00,1000.00 1800.00,993.60 1800.00,1000.00">
        <request index="0" response="0" foes="0" cont="0"/>
    </junction>
    <junction id="337" type="traffic_light" x="1400.00" y="1000.00" incLanes="1092_0 1092_1 338_0 338_1 -541_0 -541_1 -485_0 -485_1" intLanes=":337_0_0 :337_1_0 :337_1_1 :337_20_0 :337_21_0 :337_5_0 :337_6_0 :337_6_1 :337_22_0 :337_23_0 :337_10_0 :337_11_0 :337_11_1 :337_24_0 :337_25_0 :337_15_0 :337_16_0 :337_16_1 :337_26_0 :337_27_0" shape="1393.60,1010.40 1406.40,1010.40 1406.84,1008.18 1407.40,1007.40 1408.18,1006.84 1409.18,1006.51 1410.40,1006.40 1410.40,993.60 1408.18,993.16 1407.40,992.60 1406.84,991.82 1406.51,990.82 1406.40,989.60 1393.60,989.60 1393.16,991.82 1392.60,992.60 1391.82,993.16 1390.82,993.49 1389.60,993.60 1389.60,1006.40 1391.82,1006.84 1392.60,1007.40 1393.16,1008.18 1393.49,1009.18">
        <request index="0"  response="00000000000000000000" foes="00000000000011000000" cont="0"/>
        <request index="1"  response="01000000000100000000" foes="01111110000111000000" cont="0"/>
        <request index="2"  response="01000000000100000000" foes="01111110000111000000" cont="0"/>
        <request index="3"  response="01000001100100000000" foes="01110001101111000000" cont="1"/>
        <request index="4"  response="01000001100000000000" foes="01000001100000000000" cont="1"/>
        <request index="5"  response="00000001100000000000" foes="00000001100000000000" cont="0"/>
        <request index="6"  response="00000011100000001111" foes="11000011100000001111" cont="0"/>
        <request index="7"  response="00000011100000001111" foes="11000011100000001111" cont="0"/>
        <request index="8"  response="00110011100000001110" foes="00110111100000001110" cont="1"/>
        <request index="9"  response="00110000000000001000" foes="00110000000000001000" cont="1"/>
        <request index="10" response="00000000000000000000" foes="00110000000000000000" cont="0"/>
        <request index="11" response="01000000000100000000" foes="01110000000111111000" cont="0"/>
        <request index="12" response="01000000000100000000" foes="01110000000111111000" cont="0"/>
        <request index="13" response="01000000000100000110" foes="11110000000111000110" cont="1"/>
        <request index="14" response="00000000000100000110" foes="00000000000100000110" cont="1"/>
        <request index="15" response="00000000000000000110" foes="00000000000000000110" cont="0"/>
        <request index="16" response="00000011110000001110" foes="00000011111100001110" cont="0"/>
        <request index="17" response="00000011110000001110" foes="00000011111100001110" cont="0"/>
        <request index="18" response="00000011100011001110" foes="00000011100011011110" cont="1"/>
        <request index="19" response="00000010000011000000" foes="00000010000011000000" cont="1"/>
    </junction>
    <junction id="484" type="traffic_light" x="1000.00" y="1000.00" incLanes="-539_0 -539_1 485_0 485_1 -531_0 -531_1 -533_0 -533_1" intLanes=":484_0_0 :484_1_0 :484_1_1 :484_20_0 :484_21_0 :484_5_0 :484_6_0 :484_6_1 :484_22_0 :484_23_0 :484_10_0 :484_11_0 :484_11_1 :484_24_0 :484_25_0 :484_15_0 :484_16_0 :484_16_1 :484_26_0 :484_27_0" shape="993.60,1010.40 1006.40,1010.40 1006.84,1008.18 1007.40,1007.40 1008.18,1006.84 1009.18,1006.51 1010.40,1006.40 1010.40,993.60 1008.18,993.16 1007.40,992.60 1006.84,991.82 1006.51,990.82 1006.40,989.60 993.60,989.60 993.16,991.82 992.60,992.60 991.82,993.16 990.82,993.49 989.60,993.60 989.60,1006.40 991.82,1006.84 992.60,1007.40 993.16,1008.18 993.49,1009.18">
        <request index="0"  response="00000000000000000000" foes="00000000000011000000" cont="0"/>
        <request index="1"  response="01000000000100000000" foes="01111110000111000000" cont="0"/>
        <request index="2"  response="01000000000100000000" foes="01111110000111000000" cont="0"/>
        <request index="3"  response="01000001100100000000" foes="01110001101111000000" cont="1"/>
        <request index="4"  response="01000001100000000000" foes="01000001100000000000" cont="1"/>
        <request index="5"  response="00000001100000000000" foes="00000001100000000000" cont="0"/>