<?xml version="1.0" encoding="UTF-8"?>

<!-- generated on 2025-03-10 19:36:02.927158 by randomTrips.py v1_19_0+1770-8bb5c24c187
<configuration>
    <net-file value="random_subnetwork_1.net.xml"/>
    <output-trip-file value="random_subnetwork_1_light.trips.xml"/>
    <fringe-factor value="100"/>
    <min-distance value="600.0"/>
    <remove-loops value="True"/>
    <validate value="True"/>
    <period value="2.582792860012627"/>
    <random-depart value="True"/>
    <binomial value="10"/>
</configuration>
-->

<!-- generated on 2025-03-10 19:36:02 by Eclipse SUMO duarouter Version v1_19_0+1770-8bb5c24c187
<configuration xmlns:xsi="http://www.w3.org/2001/XMLSchema-instance" xsi:noNamespaceSchemaLocation="http://sumo.dlr.de/xsd/duarouterConfiguration.xsd">

    <input>
        <net-file value="random_subnetwork_1.net.xml"/>
        <route-files value="random_subnetwork_1_light.trips.xml"/>
    </input>

    <output>
        <output-file value="random_subnetwork_1_light.trips.xml.tmp"/>
        <alternatives-output value="NUL"/>
        <write-trips value="true"/>
    </output>

    <processing>
        <remove-loops value="true"/>
    </processing>

    <time>
        <begin value="0.0"/>
        <end value="3600.0"/>
    </time>

    <report>
        <no-warnings value="true"/>
        <ignore-errors value="true"/>
        <no-step-log value="true"/>
    </report>

</configuration>
-->

<routes xmlns:xsi="http://www.w3.org/2001/XMLSchema-instance" xsi:noNamespaceSchemaLocation="http://sumo.dlr.de/xsd/routes_file.xsd">
    <trip id="0" depart="0.00" from="-1912" to="1072"/>
    <trip id="1" depart="0.00" from="-1907" to="1916"/>
    <trip id="2" depart="0.00" from="-315" to="1072"/>
    <trip id="3" depart="1.00" from="-1912" to="1072"/>
    <trip id="4" depart="5.00" from="270" to="1907"/>
    <trip id="5" depart="8.00" from="-462" to="315"/>
    <trip id="6" depart="10.00" from="-1912" to="-270"/>
    <trip id="7" depart="24.00" from="-462" to="508"/>
    <trip id="8" depart="26.00" from="-1912" to="315"/>
    <trip id="9" depart="26.00" from="-1072" to="508"/>
    <trip id="10" depart="29.00" from="-462" to="1907"/>
    <trip id="11" depart="30.00" from="-1912" to="315"/>
    <trip id="12" depart="32.00" from="270" to="1916"/>
    <trip id="13" depart="35.00" from="-1916" to="1912"/>
    <trip id="15" depart="37.00" from="-508" to="462"/>
    <trip id="16" depart="42.00" from="-1912" to="462"/>
    <trip id="17" depart="43.00" from="-1912" to="315"/>
    <trip id="18" depart="44.00" from="-1072" to="315"/>
    <trip id="19" depart="45.00" from="-315" to="786"/>
    <trip id="20" depart="46.00" from="-1907" to="-270"/>
    <trip id="21" depart="47.00" from="-1912" to="315"/>
    <trip id="22" depart="51.00" from="-508" to="1072"/>
    <trip id="23" depart="52.00" from="-462" to="1912"/>
    <trip id="24" depart="56.00" from="270" to="1916"/>
    <trip id="25" depart="60.00" from="-1912" to="1072"/>
    <trip id="26" depart="74.00" from="-315" to="1916"/>
    <trip id="27" depart="76.00" from="-1072" to="315"/>
    <trip id="28" depart="79.00" from="-462" to="1072"/>
    <trip id="29" depart="86.00" from="-315" to="1912"/>
    <trip id="30" depart="87.00" from="270" to="1916"/>
    <trip id="31" depart="89.00" from="270" to="462"/>
    <trip id="32" depart="91.00" from="-508" to="1072"/>
    <trip id="33" depart="92.00" from="-508" to="1072"/>
    <trip id="34" depart="92.00" from="-1072" to="462"/>
    <trip id="35" depart="101.00" from="270" to="462"/>
    <trip id="36" depart="102.00" from="1448" to="1916"/>
    <trip id="37" depart="102.00" from="-508" to="1072"/>
    <trip id="38" depart="105.00" from="-1912" to="1072"/>
    <trip id="39" depart="106.00" from="-508" to="1072"/>
    <trip id="40" depart="106.00" from="270" to="462"/>
    <trip id="41" depart="107.00" from="-1912" to="462"/>
    <trip id="42" depart="120.00" from="-1912" to="462"/>
    <trip id="43" depart="125.00" from="-1072" to="1912"/>
    <trip id="44" depart="125.00" from="270" to="462"/>
    <trip id="45" depart="126.00" from="-508" to="1916"/>
    <trip id="46" depart="127.00" from="-315" to="1072"/>
    <trip id="47" depart="129.00" from="-462" to="305"/>
    <trip id="48" depart="136.00" from="-1072" to="462"/>
    <trip id="49" depart="141.00" from="-508" to="1916"/>
    <trip id="50" depart="146.00" from="-1072" to="315"/>
    <trip id="51" depart="151.00" from="270" to="1916"/>
    <trip id="52" depart="157.00" from="-1916" to="508"/>
    <trip id="53" depart="158.00" from="-1072" to="1907"/>
    <trip id="54" depart="165.00" from="-1916" to="508"/>
    <trip id="55" depart="168.00" from="270" to="1907"/>
    <trip id="56" depart="171.00" from="-462" to="315"/>
    <trip id="57" depart="177.00" from="-1916" to="462"/>
    <trip id="58" depart="179.00" from="-1072" to="1907"/>
    <trip id="59" depart="181.00" from="-1907" to="-270"/>
    <trip id="60" depart="181.00" from="-1072" to="315"/>
    <trip id="61" depart="187.00" from="-315" to="1072"/>
    <trip id="62" depart="192.00" from="-1916" to="462"/>
    <trip id="63" depart="192.00" from="-315" to="1912"/>
    <trip id="64" depart="192.00" from="-1907" to="1072"/>
    <trip id="65" depart="194.00" from="-1916" to="462"/>
    <trip id="66" depart="196.00" from="270" to="1907"/>
    <trip id="67" depart="198.00" from="-1916" to="1907"/>
    <trip id="68" depart="200.00" from="-1912" to="470"/>
    <trip id="69" depart="201.00" from="-1912" to="-270"/>
    <trip id="70" depart="210.00" from="-1912" to="1916"/>
    <trip id="71" depart="211.00" from="-1072" to="1912"/>
    <trip id="72" depart="214.00" from="-315" to="1072"/>
    <trip id="73" depart="219.00" from="-1907" to="462"/>
    <trip id="74" depart="220.00" from="-1912" to="1916"/>
    <trip id="75" depart="228.00" from="-462" to="1912"/>
    <trip id="76" depart="230.00" from="-462" to="1072"/>
    <trip id="77" depart="231.00" from="-1916" to="-470"/>
    <trip id="78" depart="232.00" from="270" to="1912"/>
    <trip id="79" depart="233.00" from="-462" to="1912"/>
    <trip id="80" depart="238.00" from="-1072" to="1907"/>
    <trip id="81" depart="243.00" from="-1072" to="315"/>
    <trip id="82" depart="247.00" from="-1907" to="1916"/>
    <trip id="83" depart="248.00" from="-1912" to="462"/>
    <trip id="84" depart="249.00" from="-462" to="-270"/>
    <trip id="85" depart="254.00" from="-1916" to="1912"/>
    <trip id="86" depart="255.00" from="-1907" to="462"/>
    <trip id="87" depart="256.00" from="-1072" to="508"/>
    <trip id="88" depart="257.00" from="-462" to="1072"/>
    <trip id="89" depart="257.00" from="-462" to="1072"/>
    <trip id="90" depart="262.00" from="-462" to="508"/>
    <trip id="91" depart="264.00" from="270" to="462"/>
    <trip id="92" depart="264.00" from="-508" to="462"/>
    <trip id="93" depart="267.00" from="-1072" to="315"/>
    <trip id="94" depart="268.00" from="-1916" to="315"/>
    <trip id="95" depart="271.00" from="-462" to="315"/>
    <trip id="96" depart="272.00" from="-1072" to="462"/>
    <trip id="97" depart="280.00" from="-1912" to="1072"/>
    <trip id="98" depart="281.00" from="-462" to="-270"/>
    <trip id="99" depart="284.00" from="-1907" to="462"/>
    <trip id="100" depart="285.00" from="-1907" to="462"/>
    <trip id="101" depart="286.00" from="-508" to="462"/>
    <trip id="102" depart="286.00" from="-1912" to="462"/>
    <trip id="103" depart="291.00" from="-462" to="1916"/>
    <trip id="104" depart="296.00" from="-1912" to="462"/>
    <trip id="105" depart="297.00" from="-1072" to="1907"/>
    <trip id="106" depart="301.00" from="-462" to="-270"/>
    <trip id="107" depart="304.00" from="-462" to="508"/>
    <trip id="108" depart="309.00" from="-1916" to="-270"/>
    <trip id="109" depart="314.00" from="-462" to="1907"/>
    <trip id="110" depart="325.00" from="-1912" to="462"/>
    <trip id="112" depart="326.00" from="-1912" to="1916"/>
    <trip id="113" depart="332.00" from="-462" to="1912"/>
    <trip id="114" depart="334.00" from="-1072" to="315"/>
    <trip id="115" depart="337.00" from="-462" to="1916"/>
    <trip id="116" depart="340.00" from="-315" to="1916"/>
    <trip id="117" depart="344.00" from="-1907" to="1072"/>
    <trip id="118" depart="346.00" from="-315" to="1912"/>
    <trip id="119" depart="355.00" from="-315" to="1916"/>
    <trip id="120" depart="355.00" from="-462" to="315"/>
    <trip id="121" depart="361.00" from="-462" to="315"/>
    <trip id="122" depart="365.00" from="270" to="1912"/>
    <trip id="123" depart="365.00" from="-1916" to="508"/>
    <trip id="124" depart="367.00" from="-315" to="1916"/>
    <trip id="125" depart="367.00" from="-1912" to="462"/>
    <trip id="126" depart="370.00" from="-462" to="508"/>
    <trip id="127" depart="370.00" from="-508" to="1072"/>
    <trip id="128" depart="376.00" from="-1907" to="1916"/>
    <trip id="129" depart="381.00" from="-1072" to="462"/>
    <trip id="130" depart="384.00" from="-462" to="315"/>
    <trip id="131" depart="385.00" from="-1916" to="462"/>
    <trip id="132" depart="387.00" from="270" to="1916"/>
    <trip id="133" depart="389.00" from="-508" to="462"/>
    <trip id="134" depart="389.00" from="-1916" to="-270"/>
    <trip id="135" depart="389.00" from="-1916" to="1912"/>
    <trip id="136" depart="392.00" from="-1907" to="-270"/>
    <trip id="137" depart="395.00" from="-1916" to="462"/>
    <trip id="138" depart="397.00" from="-1072" to="462"/>
    <trip id="139" depart="402.00" from="-462" to="1907"/>
    <trip id="140" depart="402.00" from="-508" to="462"/>
    <trip id="141" depart="412.00" from="-1912" to="1916"/>
    <trip id="142" depart="412.00" from="-1912" to="1072"/>
    <trip id="143" depart="415.00" from="-1912" to="-270"/>
    <trip id="144" depart="419.00" from="-1072" to="462"/>
    <trip id="145" depart="420.00" from="-462" to="-270"/>
    <trip id="146" depart="421.00" from="-1907" to="1916"/>
    <trip id="147" depart="421.00" from="-1912" to="462"/>
    <trip id="148" depart="422.00" from="-1916" to="1907"/>
    <trip id="150" depart="423.00" from="-1907" to="1916"/>
    <trip id="151" depart="425.00" from="-462" to="-270"/>
    <trip id="153" depart="440.00" from="-315" to="1912"/>
    <trip id="154" depart="441.00" from="-462" to="1916"/>
    <trip id="155" depart="446.00" from="-1072" to="462"/>
    <trip id="156" depart="447.00" from="-1072" to="315"/>
    <trip id="157" depart="447.00" from="-1912" to="315"/>
    <trip id="158" depart="449.00" from="270" to="1916"/>
    <trip id="159" depart="450.00" from="-1916" to="1912"/>
    <trip id="160" depart="451.00" from="-1916" to="1912"/>
    <trip id="161" depart="453.00" from="-1916" to="-270"/>
    <trip id="162" depart="454.00" from="-462" to="1916"/>
    <trip id="163" depart="460.00" from="-1916" to="1907"/>
    <trip id="164" depart="465.00" from="-1907" to="1072"/>
    <trip id="165" depart="466.00" from="270" to="1912"/>
    <trip id="166" depart="469.00" from="-462" to="1912"/>
    <trip id="167" depart="475.00" from="-462" to="1916"/>
    <trip id="168" depart="476.00" from="-315" to="1072"/>
    <trip id="169" depart="480.00" from="270" to="1912"/>
    <trip id="170" depart="483.00" from="-1912" to="1072"/>
    <trip id="171" depart="483.00" from="-1072" to="508"/>
    <trip id="172" depart="489.00" from="270" to="462"/>
    <trip id="173" depart="493.00" from="-1072" to="462"/>
    <trip id="174" depart="494.00" from="-1916" to="508"/>
    <trip id="175" depart="499.00" from="-1916" to="-270"/>
    <trip id="176" depart="500.00" from="-1072" to="1907"/>
    <trip id="177" depart="509.00" from="-1916" to="462"/>
    <trip id="178" depart="509.00" from="-315" to="1912"/>
    <trip id="179" depart="509.00" from="-462" to="508"/>
    <trip id="180" depart="510.00" from="-1916" to="462"/>
    <trip id="181" depart="511.00" from="-1916" to="1907"/>
    <trip id="182" depart="523.00" from="270" to="1912"/>
    <trip id="183" depart="523.00" from="-462" to="508"/>
    <trip id="184" depart="526.00" from="-315" to="1912"/>
    <trip id="185" depart="531.00" from="-1072" to="1907"/>
    <trip id="186" depart="537.00" from="-1916" to="1907"/>
    <trip id="187" depart="539.00" from="-508" to="1072"/>
    <trip id="188" depart="543.00" from="-1907" to="1072"/>
    <trip id="189" depart="554.00" from="-1916" to="508"/>
    <trip id="190" depart="554.00" from="-315" to="462"/>
    <trip id="191" depart="556.00" from="-1072" to="462"/>
    <trip id="192" depart="557.00" from="270" to="1907"/>
    <trip id="193" depart="558.00" from="-508" to="1916"/>
    <trip id="194" depart="563.00" from="-315" to="1072"/>
    <trip id="195" depart="567.00" from="-1907" to="1072"/>
    <trip id="196" depart="567.00" from="-315" to="462"/>
    <trip id="197" depart="572.00" from="270" to="1916"/>
    <trip id="198" depart="575.00" from="270" to="1912"/>
    <trip id="199" depart="576.00" from="-1072" to="315"/>
    <trip id="200" depart="584.00" from="-462" to="315"/>
    <trip id="201" depart="589.00" from="-1912" to="315"/>
    <trip id="202" depart="592.00" from="-462" to="315"/>
    <trip id="203" depart="593.00" from="270" to="1907"/>
    <trip id="204" depart="603.00" from="-1916" to="315"/>
    <trip id="205" depart="604.00" from="270" to="462"/>
    <trip id="206" depart="605.00" from="-1907" to="1072"/>
    <trip id="207" depart="606.00" from="-462" to="315"/>
    <trip id="208" depart="609.00" from="-1912" to="1072"/>
    <trip id="209" depart="612.00" from="270" to="1907"/>
    <trip id="210" depart="613.00" from="-1072" to="1912"/>
    <trip id="211" depart="619.00" from="-1907" to="-270"/>
    <trip id="212" depart="621.00" from="-1912" to="1916"/>
    <trip id="213" depart="623.00" from="-1912" to="315"/>
    <trip id="214" depart="624.00" from="-508" to="1916"/>
    <trip id="215" depart="637.00" from="-508" to="1072"/>
    <trip id="216" depart="638.00" from="-1916" to="1912"/>
    <trip id="217" depart="640.00" from="-1072" to="1912"/>
    <trip id="218" depart="644.00" from="-1916" to="462"/>
    <trip id="219" depart="644.00" from="270" to="1912"/>
    <trip id="220" depart="647.00" from="-462" to="315"/>
    <trip id="221" depart="647.00" from="-1916" to="508"/>
    <trip id="222" depart="648.00" from="-462" to="1907"/>
    <trip id="223" depart="649.00" from="-1916" to="508"/>
    <trip id="224" depart="649.00" from="-1912" to="-270"/>
    <trip id="225" depart="655.00" from="-1907" to="-270"/>
    <trip id="226" depart="655.00" from="-462" to="508"/>
    <trip id="227" depart="658.00" from="-1912" to="462"/>
    <trip id="228" depart="659.00" from="-1916" to="462"/>
    <trip id="229" depart="663.00" from="-508" to="462"/>
    <trip id="230" depart="665.00" from="-1907" to="1072"/>
    <trip id="231" depart="666.00" from="-1072" to="1907"/>
    <trip id="232" depart="667.00" from="-1907" to="1072"/>
    <trip id="233" depart="667.00" from="-1072" to="315"/>
    <trip id="234" depart="673.00" from="-1907" to="1072"/>
    <trip id="235" depart="676.00" from="-1907" to="1072"/>
    <trip id="236" depart="677.00" from="-1912" to="462"/>
    <trip id="237" depart="681.00" from="-508" to="462"/>
    <trip id="239" depart="683.00" from="-462" to="1912"/>
    <trip id="240" depart="686.00" from="-1907" to="-270"/>
    <trip id="241" depart="692.00" from="-1072" to="508"/>
    <trip id="242" depart="693.00" from="-1072" to="1907"/>
    <trip id="243" depart="694.00" from="-462" to="1072"/>
    <trip id="244" depart="695.00" from="-508" to="462"/>
    <trip id="245" depart="703.00" from="270" to="1916"/>
    <trip id="246" depart="704.00" from="-1907" to="1916"/>
    <trip id="247" depart="705.00" from="-1907" to="1072"/>
    <trip id="248" depart="707.00" from="-1916" to="462"/>
    <trip id="249" depart="709.00" from="-1916" to="508"/>
    <trip id="250" depart="712.00" from="-462" to="315"/>
    <trip id="251" depart="712.00" from="270" to="1912"/>
    <trip id="252" depart="715.00" from="-1072" to="315"/>
    <trip id="253" depart="718.00" from="270" to="462"/>
    <trip id="254" depart="722.00" from="-1912" to="-270"/>
    <trip id="255" depart="730.00" from="-315" to="1916"/>
    <trip id="256" depart="737.00" from="-462" to="1916"/>
    <trip id="257" depart="738.00" from="-462" to="508"/>
    <trip id="258" depart="740.00" from="-315" to="1916"/>
    <trip id="259" depart="742.00" from="-315" to="1916"/>
    <trip id="260" depart="744.00" from="270" to="1916"/>
    <trip id="261" depart="744.00" from="-315" to="462"/>
    <trip id="262" depart="749.00" from="-462" to="1907"/>
    <trip id="263" depart="749.00" from="-1916" to="508"/>
    <trip id="264" depart="752.00" from="-315" to="1072"/>
    <trip id="265" depart="761.00" from="-1916" to="1907"/>
    <trip id="266" depart="761.00" from="-1912" to="-270"/>
    <trip id="267" depart="766.00" from="-508" to="1072"/>
    <trip id="268" depart="769.00" from="-1916" to="1907"/>
    <trip id="269" depart="771.00" from="-315" to="462"/>
    <trip id="270" depart="776.00" from="-1907" to="-270"/>
    <trip id="271" depart="780.00" from="-1912" to="1916"/>
    <trip id="272" depart="784.00" from="-1907" to="1072"/>
    <trip id="273" depart="786.00" from="-508" to="462"/>
    <trip id="274" depart="786.00" from="-1072" to="315"/>
    <trip id="275" depart="788.00" from="-462" to="1072"/>
    <trip id="276" depart="792.00" from="-462" to="1907"/>
    <trip id="277" depart="795.00" from="-1912" to="462"/>
    <trip id="278" depart="797.00" from="270" to="1907"/>
    <trip id="279" depart="797.00" from="-1912" to="-270"/>
    <trip id="280" depart="799.00" from="-1072" to="462"/>
    <trip id="281" depart="802.00" from="-1912" to="1916"/>
    <trip id="282" depart="803.00" from="-315" to="1916"/>
    <trip id="283" depart="804.00" from="-1072" to="1912"/>
    <trip id="284" depart="812.00" from="-1072" to="1912"/>
    <trip id="285" depart="814.00" from="-462" to="1907"/>
    <trip id="286" depart="814.00" from="270" to="1907"/>
    <trip id="287" depart="817.00" from="-508" to="1916"/>
    <trip id="288" depart="819.00" from="-1916" to="462"/>
    <trip id="289" depart="821.00" from="270" to="1912"/>
    <trip id="290" depart="824.00" from="-1916" to="-270"/>
    <trip id="291" depart="825.00" from="-1912" to="462"/>
    <trip id="292" depart="826.00" from="-508" to="462"/>
    <trip id="293" depart="829.00" from="-462" to="508"/>
    <trip id="294" depart="832.00" from="-1072" to="508"/>
    <trip id="295" depart="833.00" from="-1907" to="1916"/>
    <trip id="296" depart="833.00" from="-315" to="1072"/>
    <trip id="297" depart="834.00" from="-1907" to="462"/>
    <trip id="298" depart="838.00" from="-315" to="1916"/>
    <trip id="299" depart="839.00" from="-1072" to="315"/>
    <trip id="300" depart="839.00" from="-315" to="1912"/>
    <trip id="301" depart="844.00" from="-1072" to="1907"/>
    <trip id="302" depart="849.00" from="-1907" to="462"/>
    <trip id="303" depart="852.00" from="-462" to="1912"/>
    <trip id="304" depart="855.00" from="-1912" to="-270"/>
    <trip id="305" depart="858.00" from="-1916" to="1907"/>
    <trip id="306" depart="861.00" from="-1912" to="315"/>
    <trip id="307" depart="861.00" from="270" to="462"/>
    <trip id="308" depart="866.00" from="-1072" to="1907"/>
    <trip id="309" depart="867.00" from="-1912" to="462"/>
    <trip id="310" depart="871.00" from="-1916" to="462"/>
    <trip id="311" depart="872.00" from="-1916" to="-270"/>
    <trip id="312" depart="875.00" from="-1916" to="315"/>
    <trip id="313" depart="875.00" from="-1916" to="462"/>
    <trip id="314" depart="878.00" from="-1072" to="1907"/>
    <trip id="315" depart="892.00" from="-1912" to="1448"/>
    <trip id="316" depart="893.00" from="-315" to="1916"/>
    <trip id="317" depart="894.00" from="-1916" to="1907"/>
    <trip id="318" depart="894.00" from="-1072" to="462"/>
    <trip id="319" depart="897.00" from="-1907" to="-270"/>
    <trip id="320" depart="902.00" from="-1912" to="1916"/>
    <trip id="321" depart="903.00" from="-508" to="1916"/>
    <trip id="322" depart="905.00" from="-1912" to="315"/>
    <trip id="323" depart="908.00" from="-462" to="-270"/>
    <trip id="324" depart="912.00" from="-315" to="462"/>
    <trip id="325" depart="912.00" from="-462" to="1907"/>
    <trip id="326" depart="918.00" from="-1072" to="1907"/>
    <trip id="327" depart="919.00" from="-1916" to="315"/>
    <trip id="328" depart="926.00" from="-315" to="462"/>
    <trip id="329" depart="926.00" from="-315" to="462"/>
    <trip id="330" depart="929.00" from="-462" to="-270"/>
    <trip id="331" depart="931.00" from="-1907" to="1072"/>
    <trip id="332" depart="937.00" from="-1072" to="315"/>
    <trip id="333" depart="939.00" from="-1072" to="508"/>
    <trip id="334" depart="941.00" from="-508" to="1916"/>
    <trip id="335" depart="942.00" from="-1912" to="1072"/>
    <trip id="336" depart="943.00" from="-315" to="1912"/>
    <trip id="337" depart="947.00" from="-508" to="1916"/>
    <trip id="338" depart="952.00" from="-1072" to="508"/>
    <trip id="339" depart="959.00" from="-462" to="315"/>
    <trip id="340" depart="960.00" from="-1072" to="1907"/>
    <trip id="341" depart="961.00" from="-1072" to="315"/>
    <trip id="342" depart="962.00" from="-1072" to="508"/>
    <trip id="343" depart="964.00" from="-508" to="462"/>
    <trip id="344" depart="966.00" from="-1912" to="1916"/>
    <trip id="345" depart="970.00" from="-315" to="1072"/>
    <trip id="346" depart="972.00" from="-1072" to="315"/>
    <trip id="347" depart="972.00" from="-1916" to="1907"/>
    <trip id="348" depart="973.00" from="-315" to="1912"/>
    <trip id="349" depart="975.00" from="-1912" to="462"/>
    <trip id="350" depart="975.00" from="-1912" to="-270"/>
    <trip id="351" depart="980.00" from="270" to="1912"/>
    <trip id="352" depart="981.00" from="-1912" to="1916"/>
    <trip id="353" depart="986.00" from="-1912" to="315"/>
    <trip id="354" depart="986.00" from="-462" to="1072"/>
    <trip id="355" depart="989.00" from="-462" to="508"/>
    <trip id="356" depart="991.00" from="-1916" to="-307"/>
    <trip id="357" depart="992.00" from="-1912" to="-270"/>
    <trip id="358" depart="993.00" from="-1916" to="1912"/>
    <trip id="359" depart="993.00" from="-462" to="1916"/>
    <trip id="360" depart="994.00" from="-462" to="1072"/>
    <trip id="361" depart="995.00" from="270" to="1916"/>
    <trip id="362" depart="1004.00" from="-1072" to="315"/>
    <trip id="363" depart="1005.00" from="-1916" to="315"/>
    <trip id="364" depart="1010.00" from="-462" to="315"/>
    <trip id="365" depart="1012.00" from="270" to="1907"/>
    <trip id="366" depart="1019.00" from="-508" to="1916"/>
    <trip id="367" depart="1026.00" from="-462" to="1072"/>
    <trip id="368" depart="1031.00" from="-1912" to="462"/>
    <trip id="369" depart="1032.00" from="-1072" to="1912"/>
    <trip id="370" depart="1033.00" from="-1916" to="-270"/>
    <trip id="371" depart="1036.00" from="-1912" to="1072"/>
    <trip id="372" depart="1037.00" from="-315" to="462"/>
    <trip id="373" depart="1042.00" from="270" to="462"/>
    <trip id="374" depart="1047.00" from="-1072" to="1907"/>
    <trip id="375" depart="1047.00" from="-1916" to="508"/>
    <trip id="376" depart="1051.00" from="270" to="1912"/>
    <trip id="377" depart="1052.00" from="-508" to="1072"/>
    <trip id="378" depart="1057.00" from="-462" to="1907"/>
    <trip id="379" depart="1060.00" from="-1912" to="1916"/>
    <trip id="380" depart="1063.00" from="-1072" to="1907"/>
    <trip id="381" depart="1071.00" from="270" to="462"/>
    <trip id="382" depart="1079.00" from="-1907" to="-270"/>
    <trip id="383" depart="1087.00" from="-1912" to="-270"/>
    <trip id="384" depart="1091.00" from="-1072" to="1907"/>
    <trip id="385" depart="1091.00" from="-1916" to="-270"/>
    <trip id="386" depart="1093.00" from="-1907" to="1916"/>
    <trip id="387" depart="1097.00" from="270" to="462"/>
    <trip id="388" depart="1101.00" from="-462" to="508"/>
    <trip id="389" depart="1101.00" from="-1907" to="462"/>
    <trip id="390" depart="1115.00" from="-508" to="1072"/>
    <trip id="391" depart="1122.00" from="-1907" to="1072"/>
    <trip id="392" depart="1125.00" from="270" to="1916"/>
    <trip id="393" depart="1127.00" from="270" to="1912"/>
    <trip id="394" depart="1130.00" from="-1916" to="508"/>
    <trip id="395" depart="1130.00" from="-462" to="315"/>
    <trip id="396" depart="1133.00" from="-1072" to="462"/>
    <trip id="397" depart="1135.00" from="-508" to="1072"/>
    <trip id="398" depart="1136.00" from="-1907" to="1072"/>
    <trip id="399" depart="1139.00" from="-1912" to="315"/>
    <trip id="400" depart="1142.00" from="-1916" to="-270"/>
    <trip id="401" depart="1143.00" from="-1916" to="1907"/>
    <trip id="402" depart="1145.00" from="-1912" to="1072"/>
    <trip id="403" depart="1149.00" from="-508" to="1916"/>
    <trip id="404" depart="1153.00" from="-1912" to="1072"/>
    <trip id="405" depart="1153.00" from="-1072" to="1912"/>
    <trip id="406" depart="1155.00" from="-1912" to="1916"/>
    <trip id="407" depart="1160.00" from="-462" to="315"/>
    <trip id="408" depart="1160.00" from="-462" to="1916"/>
    <trip id="409" depart="1162.00" from="-315" to="1912"/>
    <trip id="410" depart="1166.00" from="-1072" to="1907"/>
    <trip id="411" depart="1166.00" from="-1916" to="315"/>
    <trip id="412" depart="1167.00" from="-1916" to="508"/>
    <trip id="413" depart="1169.00" from="-462" to="1072"/>
    <trip id="414" depart="1169.00" from="-1916" to="1912"/>
    <trip id="415" depart="1169.00" from="-462" to="315"/>
    <trip id="416" depart="1178.00" from="-1072" to="508"/>
    <trip id="417" depart="1179.00" from="-1907" to="462"/>
    <trip id="418" depart="1181.00" from="-1912" to="-270"/>
    <trip id="419" depart="1182.00" from="-1072" to="1912"/>
    <trip id="420" depart="1183.00" from="-1912" to="462"/>
    <trip id="421" depart="1183.00" from="-1907" to="462"/>
    <trip id="422" depart="1186.00" from="-508" to="462"/>
    <trip id="423" depart="1188.00" from="-462" to="-270"/>
    <trip id="424" depart="1191.00" from="-1072" to="462"/>
    <trip id="425" depart="1191.00" from="270" to="462"/>
    <trip id="426" depart="1194.00" from="-462" to="508"/>
    <trip id="427" depart="1196.00" from="-462" to="1907"/>
    <trip id="428" depart="1203.00" from="270" to="1912"/>
    <trip id="429" depart="1206.00" from="-1912" to="1916"/>
    <trip id="430" depart="1213.00" from="-462" to="1912"/>
    <trip id="431" depart="1219.00" from="-508" to="462"/>
    <trip id="432" depart="1219.00" from="-1907" to="-270"/>
    <trip id="433" depart="1221.00" from="-1916" to="462"/>
    <trip id="434" depart="1224.00" from="-1916" to="315"/>
    <trip id="435" depart="1224.00" from="-1916" to="1912"/>
    <trip id="436" depart="1227.00" from="-1907" to="1916"/>
    <trip id="437" depart="1228.00" from="-1916" to="462"/>
    <trip id="438" depart="1229.00" from="-1916" to="315"/>
    <trip id="439" depart="1231.00" from="-1072" to="462"/>
    <trip id="440" depart="1237.00" from="-1916" to="508"/>
    <trip id="441" depart="1238.00" from="-315" to="1912"/>
    <trip id="442" depart="1239.00" from="-1907" to="1448"/>
    <trip id="443" depart="1242.00" from="-1912" to="1916"/>
    <trip id="444" depart="1245.00" from="-1907" to="1072"/>
    <trip id="445" depart="1246.00" from="-508" to="1072"/>
    <trip id="446" depart="1247.00" from="-1916" to="1912"/>
    <trip id="447" depart="1249.00" from="-1916" to="462"/>
    <trip id="448" depart="1252.00" from="270" to="1912"/>
    <trip id="449" depart="1255.00" from="-1912" to="315"/>
    <trip id="450" depart="1257.00" from="-1907" to="462"/>
    <trip id="451" depart="1262.00" from="-1916" to="462"/>
    <trip id="452" depart="1264.00" from="-1912" to="462"/>
    <trip id="453" depart="1265.00" from="270" to="1907"/>
    <trip id="454" depart="1271.00" from="-508" to="1916"/>
    <trip id="455" depart="1271.00" from="-508" to="462"/>
    <trip id="456" depart="1275.00" from="-508" to="462"/>
    <trip id="457" depart="1282.00" from="270" to="1907"/>
    <trip id="458" depart="1283.00" from="-1907" to="-270"/>
    <trip id="459" depart="1289.00" from="-462" to="508"/>
    <trip id="460" depart="1291.00" from="-462" to="315"/>
    <trip id="461" depart="1292.00" from="-1907" to="462"/>
    <trip id="462" depart="1301.00" from="-462" to="-270"/>
    <trip id="463" depart="1301.00" from="-1912" to="462"/>
    <trip id="464" depart="1305.00" from="-315" to="-1443"/>
    <trip id="465" depart="1308.00" from="-462" to="315"/>
    <trip id="466" depart="1309.00" from="-462" to="1443"/>
    <trip id="467" depart="1314.00" from="-1072" to="1907"/>
    <trip id="468" depart="1316.00" from="-462" to="-270"/>
    <trip id="469" depart="1321.00" from="-1907" to="462"/>
    <trip id="470" depart="1321.00" from="-1072" to="462"/>
    <trip id="471" depart="1322.00" from="-462" to="1072"/>
    <trip id="472" depart="1327.00" from="270" to="1916"/>
    <trip id="473" depart="1328.00" from="-1912" to="315"/>
    <trip id="474" depart="1332.00" from="-508" to="1916"/>
    <trip id="475" depart="1337.00" from="-315" to="1072"/>
    <trip id="476" depart="1339.00" from="-1072" to="1907"/>
    <trip id="477" depart="1340.00" from="-508" to="462"/>
    <trip id="478" depart="1344.00" from="-462" to="1916"/>
    <trip id="479" depart="1345.00" from="270" to="1907"/>
    <trip id="481" depart="1349.00" from="-1072" to="-470"/>
    <trip id="482" depart="1357.00" from="-508" to="1916"/>
    <trip id="483" depart="1359.00" from="-508" to="1072"/>
    <trip id="484" depart="1360.00" from="-1072" to="315"/>
    <trip id="485" depart="1361.00" from="-1072" to="1907"/>
    <trip id="486" depart="1361.00" from="-462" to="1916"/>
    <trip id="487" depart="1364.00" from="270" to="1912"/>