<?xml version="1.0" encoding="UTF-8"?>

<!-- generated on 2025-03-09 19:55:14.561893 by randomTrips.py v1_19_0+1770-8bb5c24c187
<configuration>
    <net-file value="random_subnetwork_5.net.xml"/>
    <output-trip-file value="random_subnetwork_5_medium.trips.xml"/>
    <fringe-factor value="100"/>
    <remove-loops value="True"/>
    <validate value="True"/>
    <period value="2.2179"/>
    <random-depart value="True"/>
    <binomial value="4"/>
</configuration>
-->

<!-- generated on 2025-03-09 19:55:14 by Eclipse SUMO duarouter Version v1_19_0+1770-8bb5c24c187
<configuration xmlns:xsi="http://www.w3.org/2001/XMLSchema-instance" xsi:noNamespaceSchemaLocation="http://sumo.dlr.de/xsd/duarouterConfiguration.xsd">

    <input>
        <net-file value="random_subnetwork_5.net.xml"/>
        <route-files value="random_subnetwork_5_medium.trips.xml"/>
    </input>

    <output>
        <output-file value="random_subnetwork_5_medium.trips.xml.tmp"/>
        <alternatives-output value="NUL"/>
        <write-trips value="true"/>
    </output>

    <processing>
        <remove-loops value="true"/>
    </processing>

    <time>
        <begin value="0.0"/>
        <end value="3600.0"/>
    </time>

    <report>
        <no-warnings value="true"/>
        <ignore-errors value="true"/>
        <no-step-log value="true"/>
    </report>

</configuration>
-->

<routes xmlns:xsi="http://www.w3.org/2001/XMLSchema-instance" xsi:noNamespaceSchemaLocation="http://sumo.dlr.de/xsd/routes_file.xsd">
    <trip id="0" depart="0.00" from="-1104" to="1102"/>
    <trip id="1" depart="1.00" from="-1677" to="-275"/>
    <trip id="2" depart="2.00" from="-1104" to="1690"/>
    <trip id="3" depart="3.00" from="-939" to="330"/>
    <trip id="4" depart="4.00" from="-1085" to="819"/>
    <trip id="5" depart="7.00" from="-1104" to="1102"/>
    <trip id="6" depart="8.00" from="-1104" to="330"/>
    <trip id="7" depart="13.00" from="-1568" to="1102"/>
    <trip id="8" depart="18.00" from="-1085" to="949"/>
    <trip id="9" depart="19.00" from="-1568" to="939"/>
    <trip id="10" depart="20.00" from="-819" to="1690"/>
    <trip id="11" depart="21.00" from="-1677" to="1568"/>
    <trip id="12" depart="25.00" from="-1568" to="-275"/>
    <trip id="13" depart="26.00" from="-939" to="939"/>
    <trip id="14" depart="26.00" from="-1677" to="-275"/>
    <trip id="15" depart="32.00" from="-531" to="1102"/>
    <trip id="16" depart="33.00" from="-1104" to="1690"/>
    <trip id="17" depart="35.00" from="-1677" to="1568"/>
    <trip id="18" depart="36.00" from="-1677" to="1104"/>
    <trip id="19" depart="39.00" from="-949" to="819"/>
    <trip id="20" depart="41.00" from="-1568" to="939"/>
    <trip id="21" depart="45.00" from="-1690" to="1568"/>
    <trip id="22" depart="46.00" from="-1102" to="1677"/>
    <trip id="23" depart="51.00" from="-1677" to="943"/>
    <trip id="24" depart="52.00" from="-1104" to="1102"/>
    <trip id="25" depart="54.00" from="-939" to="1102"/>
    <trip id="26" depart="56.00" from="-1690" to="1102"/>
    <trip id="27" depart="58.00" from="-1677" to="1102"/>
    <trip id="28" depart="58.00" from="-819" to="1690"/>
    <trip id="29" depart="59.00" from="-1085" to="819"/>
    <trip id="30" depart="63.00" from="-819" to="819"/>
    <trip id="31" depart="65.00" from="-819" to="1104"/>
    <trip id="32" depart="67.00" from="-939" to="819"/>
    <trip id="33" depart="69.00" from="-1102" to="1104"/>
    <trip id="34" depart="72.00" from="-1677" to="531"/>
    <trip id="35" depart="74.00" from="275" to="1677"/>
    <trip id="36" depart="75.00" from="-531" to="1104"/>
    <trip id="37" depart="80.00" from="-1104" to="1568"/>
    <trip id="38" depart="82.00" from="-1690" to="1690"/>
    <trip id="39" depart="84.00" from="-1104" to="1568"/>
    <trip id="40" depart="84.00" from="-1677" to="1690"/>
    <trip id="41" depart="86.00" from="-819" to="531"/>
    <trip id="42" depart="86.00" from="-1677" to="1085"/>
    <trip id="43" depart="87.00" from="-1104" to="819"/>
    <trip id="44" depart="93.00" from="-1104" to="1102"/>
    <trip id="45" depart="94.00" from="-1677" to="1677"/>
    <trip id="46" depart="97.00" from="-1568" to="531"/>
    <trip id="47" depart="99.00" from="-1568" to="1690"/>
    <trip id="48" depart="101.00" from="-1677" to="1677"/>
    <trip id="49" depart="101.00" from="-531" to="1085"/>
    <trip id="50" depart="102.00" from="-1568" to="1102"/>
    <trip id="51" depart="103.00" from="-1085" to="1677"/>
    <trip id="52" depart="106.00" from="-1102" to="1085"/>
    <trip id="53" depart="109.00" from="-1085" to="1104"/>
    <trip id="54" depart="110.00" from="541" to="1690"/>
    <trip id="55" depart="110.00" from="-819" to="819"/>
    <trip id="56" depart="113.00" from="275" to="1690"/>
    <trip id="57" depart="117.00" from="-939" to="1102"/>
    <trip id="58" depart="118.00" from="-939" to="1085"/>
    <trip id="59" depart="120.00" from="275" to="-275"/>
    <trip id="60" depart="122.00" from="-1104" to="1690"/>
    <trip id="61" depart="127.00" from="-1102" to="1102"/>
    <trip id="62" depart="128.00" from="-1690" to="1102"/>
    <trip id="63" depart="131.00" from="275" to="1568"/>
    <trip id="64" depart="132.00" from="-531" to="-275"/>
    <trip id="65" depart="138.00" from="-1085" to="1568"/>
    <trip id="66" depart="142.00" from="-1102" to="1104"/>
    <trip id="67" depart="145.00" from="-1085" to="1568"/>
    <trip id="68" depart="146.00" from="275" to="819"/>
    <trip id="69" depart="147.00" from="-819" to="1568"/>
    <trip id="70" depart="149.00" from="-1568" to="1104"/>
    <trip id="71" depart="158.00" from="485" to="939"/>
    <trip id="72" depart="168.00" from="-819" to="531"/>
    <trip id="73" depart="170.00" from="-1690" to="1677"/>
    <trip id="74" depart="175.00" from="-1085" to="1690"/>
    <trip id="75" depart="177.00" from="-531" to="819"/>
    <trip id="76" depart="178.00" from="-939" to="1102"/>
    <trip id="77" depart="179.00" from="-939" to="1690"/>
    <trip id="78" depart="181.00" from="-939" to="939"/>
    <trip id="79" depart="187.00" from="-531" to="1568"/>
    <trip id="80" depart="192.00" from="-1108" to="531"/>
    <trip id="81" depart="198.00" from="-1690" to="1568"/>
    <trip id="82" depart="200.00" from="-1104" to="-275"/>
    <trip id="83" depart="201.00" from="-939" to="939"/>
    <trip id="84" depart="203.00" from="-939" to="1085"/>
    <trip id="85" depart="205.00" from="-1677" to="1568"/>
    <trip id="86" depart="205.00" from="-1568" to="1568"/>
    <trip id="87" depart="206.00" from="-531" to="1677"/>
    <trip id="88" depart="209.00" from="-819" to="1102"/>
    <trip id="89" depart="210.00" from="-819" to="1085"/>
    <trip id="90" depart="211.00" from="-939" to="1085"/>
    <trip id="91" depart="212.00" from="-1085" to="531"/>
    <trip id="92" depart="213.00" from="-819" to="1677"/>
    <trip id="93" depart="215.00" from="-1690" to="939"/>
    <trip id="94" depart="215.00" from="-819" to="819"/>
    <trip id="95" depart="216.00" from="-1677" to="1104"/>
    <trip id="96" depart="217.00" from="-1085" to="1690"/>
    <trip id="97" depart="217.00" from="-1104" to="1690"/>
    <trip id="98" depart="219.00" from="-819" to="819"/>
    <trip id="99" depart="221.00" from="-1677" to="1690"/>
    <trip id="100" depart="222.00" from="-939" to="-275"/>
    <trip id="101" depart="223.00" from="-819" to="819"/>
    <trip id="102" depart="227.00" from="-939" to="1104"/>
    <trip id="103" depart="229.00" from="275" to="819"/>
    <trip id="104" depart="231.00" from="-939" to="1677"/>
    <trip id="105" depart="232.00" from="-819" to="1102"/>
    <trip id="106" depart="234.00" from="-1085" to="1085"/>
    <trip id="107" depart="237.00" from="-1677" to="1677"/>
    <trip id="108" depart="238.00" from="-1568" to="1102"/>
    <trip id="109" depart="239.00" from="-819" to="1085"/>
    <trip id="110" depart="240.00" from="-939" to="-275"/>
    <trip id="111" depart="240.00" from="275" to="819"/>
    <trip id="112" depart="242.00" from="-1568" to="819"/>
    <trip id="113" depart="243.00" from="-939" to="1102"/>
    <trip id="114" depart="252.00" from="-1677" to="1102"/>
    <trip id="115" depart="252.00" from="-1690" to="1104"/>
    <trip id="116" depart="253.00" from="-939" to="-275"/>
    <trip id="117" depart="256.00" from="-1102" to="833"/>
    <trip id="118" depart="261.00" from="-1085" to="1690"/>
    <trip id="119" depart="269.00" from="-939" to="330"/>
    <trip id="120" depart="270.00" from="-1568" to="531"/>
    <trip id="121" depart="279.00" from="-939" to="819"/>
    <trip id="122" depart="282.00" from="-1085" to="1568"/>
    <trip id="123" depart="283.00" from="275" to="819"/>
    <trip id="124" depart="285.00" from="-1085" to="1102"/>
    <trip id="125" depart="287.00" from="-1104" to="1102"/>
    <trip id="126" depart="287.00" from="-1677" to="531"/>
    <trip id="127" depart="287.00" from="275" to="1677"/>
    <trip id="128" depart="288.00" from="-1690" to="1102"/>
    <trip id="129" depart="289.00" from="275" to="-275"/>
    <trip id="130" depart="292.00" from="-833" to="1104"/>
    <trip id="131" depart="293.00" from="-1690" to="819"/>
    <trip id="132" depart="295.00" from="-819" to="1568"/>
    <trip id="133" depart="296.00" from="-1104" to="-275"/>
    <trip id="134" depart="302.00" from="-531" to="819"/>
    <trip id="135" depart="303.00" from="-531" to="1102"/>
    <trip id="136" depart="304.00" from="-939" to="1104"/>
    <trip id="137" depart="305.00" from="-531" to="1104"/>
    <trip id="138" depart="307.00" from="-1085" to="531"/>
    <trip id="139" depart="315.00" from="-531" to="819"/>
    <trip id="140" depart="315.00" from="-1690" to="819"/>
    <trip id="141" depart="318.00" from="-1690" to="1104"/>
    <trip id="142" depart="319.00" from="-1568" to="949"/>
    <trip id="143" depart="320.00" from="275" to="1690"/>
    <trip id="144" depart="323.00" from="-1102" to="1085"/>
    <trip id="145" depart="329.00" from="-1085" to="1690"/>
    <trip id="146" depart="333.00" from="-1085" to="1568"/>
    <trip id="147" depart="337.00" from="-1104" to="1104"/>
    <trip id="148" depart="340.00" from="275" to="1677"/>
    <trip id="149" depart="341.00" from="-1690" to="819"/>
    <trip id="150" depart="344.00" from="-1690" to="531"/>
    <trip id="151" depart="348.00" from="-1102" to="1104"/>
    <trip id="152" depart="354.00" from="-1677" to="939"/>
    <trip id="153" depart="357.00" from="275" to="949"/>
    <trip id="154" depart="357.00" from="-1568" to="1085"/>
    <trip id="155" depart="359.00" from="-1102" to="1085"/>
    <trip id="156" depart="372.00" from="-1677" to="531"/>
    <trip id="157" depart="372.00" from="-819" to="-275"/>
    <trip id="158" depart="375.00" from="-1690" to="1677"/>
    <trip id="159" depart="379.00" from="-1690" to="937"/>
    <trip id="160" depart="382.00" from="-1102" to="1568"/>
    <trip id="161" depart="385.00" from="-531" to="1085"/>
    <trip id="162" depart="387.00" from="-531" to="1690"/>
    <trip id="163" depart="387.00" from="-1102" to="1102"/>
    <trip id="164" depart="393.00" from="-1677" to="531"/>
    <trip id="165" depart="394.00" from="-1690" to="-275"/>
    <trip id="166" depart="396.00" from="-1690" to="819"/>
    <trip id="167" depart="397.00" from="-1677" to="819"/>
    <trip id="168" depart="399.00" from="-1568" to="-275"/>
    <trip id="169" depart="399.00" from="275" to="-275"/>
    <trip id="170" depart="405.00" from="-1085" to="1102"/>
    <trip id="171" depart="409.00" from="-1104" to="330"/>
    <trip id="172" depart="409.00" from="-531" to="531"/>
    <trip id="173" depart="409.00" from="-819" to="1104"/>
    <trip id="174" depart="410.00" from="-1690" to="1102"/>
    <trip id="175" depart="413.00" from="275" to="819"/>
    <trip id="176" depart="420.00" from="-819" to="1085"/>
    <trip id="177" depart="424.00" from="275" to="939"/>
    <trip id="178" depart="428.00" from="275" to="1568"/>
    <trip id="179" depart="436.00" from="-1085" to="819"/>
    <trip id="180" depart="438.00" from="-1690" to="1104"/>
    <trip id="181" depart="439.00" from="-1690" to="-275"/>
    <trip id="182" depart="440.00" from="-939" to="1690"/>
    <trip id="183" depart="441.00" from="-1085" to="1085"/>
    <trip id="184" depart="445.00" from="-1568" to="1677"/>
    <trip id="185" depart="445.00" from="-1085" to="1085"/>
    <trip id="186" depart="447.00" from="-1690" to="-275"/>
    <trip id="187" depart="448.00" from="-1085" to="939"/>
    <trip id="188" depart="449.00" from="275" to="1104"/>
    <trip id="189" depart="450.00" from="-1102" to="1102"/>
    <trip id="190" depart="453.00" from="-1677" to="819"/>
    <trip id="191" depart="454.00" from="-1104" to="939"/>
    <trip id="192" depart="456.00" from="-531" to="531"/>
    <trip id="193" depart="457.00" from="-1102" to="531"/>
    <trip id="194" depart="458.00" from="-1085" to="1104"/>
    <trip id="195" depart="460.00" from="-1568" to="-275"/>
    <trip id="196" depart="461.00" from="275" to="939"/>
    <trip id="197" depart="463.00" from="-1677" to="1568"/>
    <trip id="198" depart="464.00" from="-1104" to="1102"/>
    <trip id="199" depart="465.00" from="-1568" to="939"/>
    <trip id="200" depart="476.00" from="-330" to="1568"/>
    <trip id="201" depart="479.00" from="-819" to="1690"/>
    <trip id="202" depart="479.00" from="275" to="1690"/>
    <trip id="203" depart="481.00" from="-1104" to="1677"/>
    <trip id="204" depart="483.00" from="-1102" to="1568"/>
    <trip id="205" depart="491.00" from="-531" to="1085"/>
    <trip id="206" depart="493.00" from="-1102" to="819"/>
    <trip id="207" depart="497.00" from="-1102" to="1085"/>
    <trip id="208" depart="502.00" from="-1568" to="-275"/>
    <trip id="209" depart="504.00" from="-1085" to="531"/>
    <trip id="210" depart="508.00" from="-819" to="1677"/>
    <trip id="211" depart="508.00" from="-939" to="531"/>
    <trip id="212" depart="513.00" from="-1568" to="1102"/>
    <trip id="213" depart="515.00" from="275" to="531"/>
    <trip id="214" depart="520.00" from="-1690" to="1102"/>
    <trip id="215" depart="521.00" from="-819" to="531"/>
    <trip id="216" depart="522.00" from="-1690" to="1102"/>
    <trip id="217" depart="525.00" from="-1102" to="531"/>
    <trip id="218" depart="526.00" from="275" to="1085"/>
    <trip id="219" depart="531.00" from="-1677" to="1085"/>
    <trip id="220" depart="532.00" from="-819" to="819"/>
    <trip id="221" depart="533.00" from="-1568" to="531"/>
    <trip id="222" depart="533.00" from="-1568" to="819"/>
    <trip id="223" depart="535.00" from="-531" to="1568"/>
    <trip id="224" depart="537.00" from="-1102" to="531"/>
    <trip id="225" depart="538.00" from="-1690" to="1677"/>
    <trip id="226" depart="541.00" from="275" to="939"/>
    <trip id="227" depart="545.00" from="-1085" to="1102"/>
    <trip id="228" depart="546.00" from="-1085" to="531"/>
    <trip id="229" depart="547.00" from="-1690" to="1690"/>
    <trip id="230" depart="550.00" from="-819" to="531"/>
    <trip id="231" depart="550.00" from="-1085" to="1568"/>
    <trip id="232" depart="555.00" from="-939" to="1102"/>
    <trip id="233" depart="556.00" from="-819" to="1677"/>
    <trip id="234" depart="556.00" from="-1677" to="1104"/>
    <trip id="235" depart="557.00" from="-1690" to="531"/>
    <trip id="236" depart="558.00" from="-939" to="1102"/>
    <trip id="237" depart="561.00" from="-1568" to="1568"/>
    <trip id="238" depart="563.00" from="-1677" to="1102"/>
    <trip id="239" depart="564.00" from="-1104" to="1677"/>
    <trip id="240" depart="567.00" from="-1677" to="1102"/>
    <trip id="241" depart="568.00" from="-531" to="819"/>
    <trip id="242" depart="568.00" from="-1690" to="1102"/>
    <trip id="243" depart="569.00" from="-833" to="531"/>
    <trip id="244" depart="569.00" from="275" to="819"/>
    <trip id="245" depart="570.00" from="-1085" to="1085"/>
    <trip id="246" depart="571.00" from="-1690" to="1568"/>
    <trip id="247" depart="573.00" from="-1104" to="531"/>
    <trip id="248" depart="577.00" from="-939" to="1104"/>
    <trip id="249" depart="578.00" from="-1104" to="1104"/>
    <trip id="250" depart="579.00" from="-1677" to="1568"/>
    <trip id="251" depart="580.00" from="-939" to="939"/>
    <trip id="252" depart="583.00" from="-1085" to="939"/>
    <trip id="253" depart="584.00" from="-1677" to="1085"/>
    <trip id="254" depart="585.00" from="-531" to="1085"/>
    <trip id="255" depart="586.00" from="-531" to="1102"/>
    <trip id="256" depart="587.00" from="-1104" to="1085"/>
    <trip id="257" depart="592.00" from="338" to="1677"/>
    <trip id="258" depart="593.00" from="-531" to="1102"/>
    <trip id="259" depart="594.00" from="-833" to="1102"/>
    <trip id="260" depart="597.00" from="-819" to="939"/>
    <trip id="261" depart="599.00" from="-1104" to="1102"/>
    <trip id="262" depart="600.00" from="275" to="1085"/>
    <trip id="263" depart="601.00" from="-1690" to="939"/>
    <trip id="264" depart="603.00" from="-1568" to="1085"/>
    <trip id="265" depart="609.00" from="-531" to="939"/>
    <trip id="266" depart="612.00" from="-819" to="1690"/>
    <trip id="267" depart="613.00" from="-1104" to="937"/>
    <trip id="268" depart="613.00" from="-1568" to="531"/>
    <trip id="269" depart="615.00" from="-1677" to="819"/>
    <trip id="270" depart="616.00" from="-939" to="1102"/>
    <trip id="271" depart="616.00" from="-1102" to="1104"/>
    <trip id="272" depart="617.00" from="-531" to="1690"/>
    <trip id="273" depart="618.00" from="275" to="1085"/>
    <trip id="274" depart="619.00" from="-1104" to="1085"/>
    <trip id="275" depart="620.00" from="-1690" to="819"/>
    <trip id="276" depart="622.00" from="-1102" to="1102"/>
    <trip id="277" depart="623.00" from="-939" to="1104"/>
    <trip id="278" depart="624.00" from="-1690" to="1085"/>
    <trip id="279" depart="626.00" from="-819" to="1690"/>
    <trip id="280" depart="626.00" from="-1568" to="1677"/>
    <trip id="281" depart="629.00" from="275" to="531"/>
    <trip id="282" depart="634.00" from="-1568" to="1104"/>
    <trip id="283" depart="638.00" from="-1104" to="1677"/>
    <trip id="284" depart="640.00" from="-1104" to="1085"/>
    <trip id="285" depart="641.00" from="949" to="1104"/>
    <trip id="286" depart="642.00" from="-939" to="1102"/>
    <trip id="287" depart="643.00" from="-939" to="1085"/>
    <trip id="288" depart="648.00" from="-1102" to="819"/>
    <trip id="289" depart="651.00" from="-1568" to="1677"/>
    <trip id="290" depart="656.00" from="-819" to="531"/>
    <trip id="291" depart="656.00" from="275" to="1690"/>
    <trip id="292" depart="656.00" from="-1104" to="819"/>
    <trip id="293" depart="659.00" from="-1690" to="1690"/>
    <trip id="294" depart="661.00" from="-1085" to="939"/>
    <trip id="295" depart="666.00" from="-819" to="1677"/>
    <trip id="296" depart="669.00" from="-1102" to="1102"/>
    <trip id="297" depart="671.00" from="-1568" to="531"/>
    <trip id="298" depart="674.00" from="-949" to="1568"/>
    <trip id="299" depart="675.00" from="-939" to="1085"/>
    <trip id="300" depart="678.00" from="-1104" to="531"/>
    <trip id="301" depart="679.00" from="-531" to="1690"/>
    <trip id="302" depart="680.00" from="-1104" to="1104"/>
    <trip id="303" depart="680.00" from="-1568" to="819"/>
    <trip id="304" depart="689.00" from="-939" to="1102"/>
    <trip id="305" depart="689.00" from="539" to="1690"/>
    <trip id="306" depart="690.00" from="-539" to="1568"/>
    <trip id="307" depart="693.00" from="-819" to="1085"/>
    <trip id="308" depart="694.00" from="-1104" to="1085"/>
    <trip id="309" depart="695.00" from="-1690" to="1089"/>
    <trip id="310" depart="696.00" from="-531" to="939"/>
    <trip id="311" depart="697.00" from="-1690" to="531"/>
    <trip id="312" depart="697.00" from="-1104" to="1102"/>
    <trip id="313" depart="698.00" from="-1102" to="-275"/>
    <trip id="314" depart="700.00" from="-819" to="-275"/>
    <trip id="315" depart="702.00" from="-939" to="1085"/>
    <trip id="316" depart="704.00" from="275" to="1085"/>
    <trip id="317" depart="706.00" from="-531" to="819"/>
    <trip id="318" depart="708.00" from="-1104" to="1104"/>
    <trip id="319" depart="711.00" from="-531" to="1102"/>
    <trip id="320" depart="712.00" from="-531" to="1085"/>
    <trip id="321" depart="713.00" from="-1690" to="1102"/>
    <trip id="322" depart="714.00" from="-1104" to="1690"/>
    <trip id="323" depart="717.00" from="-1677" to="1677"/>
    <trip id="324" depart="717.00" from="-1085" to="1690"/>
    <trip id="325" depart="719.00" from="-1104" to="1568"/>
    <trip id="326" depart="723.00" from="-1102" to="1085"/>
    <trip id="327" depart="723.00" from="-531" to="1085"/>
    <trip id="328" depart="725.00" from="-1677" to="939"/>
    <trip id="329" depart="727.00" from="275" to="819"/>
    <trip id="330" depart="741.00" from="-1102" to="1690"/>
    <trip id="331" depart="743.00" from="-939" to="-485"/>
    <trip id="332" depart="747.00" from="-1104" to="1690"/>
    <trip id="333" depart="755.00" from="275" to="1690"/>
    <trip id="334" depart="757.00" from="-1690" to="1568"/>
    <trip id="335" depart="757.00" from="-1104" to="1102"/>
    <trip id="336" depart="760.00" from="-531" to="1568"/>
    <trip id="337" depart="764.00" from="275" to="1085"/>
    <trip id="338" depart="765.00" from="-1085" to="1690"/>
    <trip id="339" depart="766.00" from="-1690" to="531"/>
    <trip id="340" depart="769.00" from="-1085" to="531"/>
    <trip id="341" depart="771.00" from="-531" to="1677"/>
    <trip id="342" depart="772.00" from="275" to="541"/>
    <trip id="343" depart="773.00" from="-819" to="1568"/>
    <trip id="344" depart="778.00" from="-531" to="1677"/>
    <trip id="345" depart="783.00" from="-1089" to="531"/>
    <trip id="346" depart="785.00" from="-531" to="937"/>
    <trip id="347" depart="787.00" from="-1104" to="1102"/>
    <trip id="348" depart="792.00" from="-1085" to="-275"/>
    <trip id="349" depart="792.00" from="-1690" to="1108"/>
    <trip id="350" depart="801.00" from="-1568" to="-275"/>
    <trip id="351" depart="802.00" from="275" to="1104"/>
    <trip id="352" depart="808.00" from="-531" to="1102"/>
    <trip id="353" depart="811.00" from="-1085" to="1677"/>
    <trip id="354" depart="812.00" from="-1690" to="-275"/>
    <trip id="355" depart="814.00" from="-819" to="1690"/>
    <trip id="356" depart="814.00" from="-1677" to="939"/>
    <trip id="357" depart="818.00" from="-1104" to="819"/>
    <trip id="358" depart="819.00" from="-1677" to="1690"/>
    <trip id="359" depart="819.00" from="-819" to="1677"/>
    <trip id="360" depart="822.00" from="-1690" to="1102"/>
    <trip id="361" depart="824.00" from="-1102" to="1568"/>
    <trip id="362" depart="827.00" from="-531" to="1690"/>
    <trip id="363" depart="836.00" from="-1085" to="1085"/>
    <trip id="364" depart="837.00" from="-1104" to="-275"/>
    <trip id="365" depart="837.00" from="-1568" to="939"/>
    <trip id="366" depart="840.00" from="-531" to="1677"/>
    <trip id="367" depart="841.00" from="-1104" to="1089"/>
    <trip id="368" depart="843.00" from="-1085" to="1102"/>
    <trip id="369" depart="846.00" from="-1085" to="1102"/>
    <trip id="370" depart="850.00" from="-1102" to="-275"/>
    <trip id="371" depart="852.00" from="-939" to="1102"/>
    <trip id="372" depart="852.00" from="-531" to="819"/>
    <trip id="373" depart="853.00" from="275" to="1568"/>
    <trip id="374" depart="857.00" from="275" to="1690"/>
    <trip id="375" depart="858.00" from="-1677" to="1690"/>
    <trip id="376" depart="861.00" from="-939" to="1568"/>
    <trip id="377" depart="863.00" from="-1104" to="1677"/>
    <trip id="378" depart="868.00" from="-1104" to="1102"/>
    <trip id="379" depart="873.00" from="-939" to="1568"/>
    <trip id="380" depart="875.00" from="-1102" to="819"/>
    <trip id="381" depart="880.00" from="-1102" to="1102"/>
    <trip id="382" depart="883.00" from="-819" to="1690"/>
    <trip id="383" depart="884.00" from="-1102" to="485"/>
    <trip id="384" depart="884.00" from="-939" to="1677"/>
    <trip id="385" depart="885.00" from="-1677" to="531"/>
    <trip id="386" depart="885.00" from="-1104" to="1085"/>
    <trip id="387" depart="887.00" from="-531" to="819"/>
    <trip id="388" depart="893.00" from="-939" to="819"/>
    <trip id="389" depart="894.00" from="275" to="939"/>
    <trip id="390" depart="894.00" from="-1677" to="1102"/>
    <trip id="391" depart="895.00" from="-1568" to="1568"/>
    <trip id="392" depart="901.00" from="-1085" to="1677"/>
    <trip id="393" depart="902.00" from="-1104" to="531"/>
    <trip id="394" depart="905.00" from="-819" to="-275"/>
    <trip id="395" depart="908.00" from="-1677" to="531"/>
    <trip id="396" depart="910.00" from="275" to="1677"/>
    <trip id="397" depart="914.00" from="-1085" to="531"/>
    <trip id="398" depart="915.00" from="-1102" to="-275"/>
    <trip id="399" depart="916.00" from="-531" to="531"/>
    <trip id="400" depart="923.00" from="-1102" to="1102"/>
    <trip id="401" depart="923.00" from="-531" to="1104"/>
    <trip id="402" depart="924.00" from="-939" to="531"/>
    <trip id="403" depart="927.00" from="-1690" to="-275"/>
    <trip id="404" depart="928.00" from="-1690" to="819"/>
    <trip id="405" depart="930.00" from="275" to="-1092"/>
    <trip id="406" depart="931.00" from="-939" to="-275"/>
    <trip id="407" depart="933.00" from="-1085" to="1102"/>
    <trip id="408" depart="934.00" from="-819" to="1677"/>
    <trip id="409" depart="936.00" from="-531" to="1104"/>
    <trip id="410" depart="945.00" from="-939" to="1690"/>
    <trip id="411" depart="946.00" from="-1568" to="1085"/>
    <trip id="412" depart="948.00" from="-1677" to="939"/>
    <trip id="413" depart="951.00" from="-1085" to="531"/>
    <trip id="414" depart="953.00" from="-819" to="1104"/>
    <trip id="415" depart="954.00" from="-1690" to="1085"/>
    <trip id="416" depart="954.00" from="-819" to="1104"/>
    <trip id="417" depart="956.00" from="-1690" to="-275"/>
    <trip id="418" depart="957.00" from="-1690" to="531"/>
    <trip id="419" depart="959.00" from="-819" to="1104"/>
    <trip id="420" depart="960.00" from="-531" to="1568"/>
    <trip id="421" depart="961.00" from="-1568" to="939"/>
    <trip id="422" depart="962.00" from="-939" to="1085"/>
    <trip id="423" depart="963.00" from="-1085" to="939"/>
    <trip id="424" depart="964.00" from="-819" to="1085"/>
    <trip id="425" depart="965.00" from="-1104" to="1677"/>
    <trip id="426" depart="967.00" from="-1690" to="1690"/>
    <trip id="427" depart="967.00" from="-1102" to="1102"/>
    <trip id="428" depart="968.00" from="-531" to="-275"/>
    <trip id="429" depart="969.00" from="-939" to="1690"/>
    <trip id="430" depart="970.00" from="-1568" to="819"/>
    <trip id="431" depart="972.00" from="-1104" to="1677"/>
    <trip id="432" depart="975.00" from="-1690" to="1102"/>
    <trip id="433" depart="976.00" from="-1568" to="939"/>
    <trip id="434" depart="987.00" from="-1102" to="531"/>
    <trip id="435" depart="991.00" from="-819" to="-275"/>
    <trip id="436" depart="993.00" from="275" to="939"/>
    <trip id="437" depart="994.00" from="-819" to="1104"/>
    <trip id="438" depart="997.00" from="-541" to="1677"/>
    <trip id="439" depart="999.00" from="-1104" to="1104"/>
    <trip id="440" depart="1000.00" from="-1690" to="1085"/>
    <trip id="441" depart="1013.00" from="-939" to="1102"/>
    <trip id="442" depart="1014.00" from="-531" to="1102"/>
    <trip id="443" depart="1016.00" from="-1102" to="1690"/>
    <trip id="444" depart="1016.00" from="-939" to="1690"/>
    <trip id="445" depart="1017.00" from="-1677" to="1085"/>
    <trip id="446" depart="1019.00" from="-1568" to="1104"/>
    <trip id="447" depart="1020.00" from="-1677" to="1677"/>
    <trip id="448" depart="1022.00" from="-819" to="1690"/>
    <trip id="449" depart="1027.00" from="-1085" to="1690"/>
    <trip id="450" depart="1030.00" from="-1104" to="1102"/>
    <trip id="451" depart="1031.00" from="-531" to="1104"/>
    <trip id="452" depart="1032.00" from="-1102" to="1104"/>
    <trip id="453" depart="1038.00" from="275" to="1690"/>
    <trip id="454" depart="1040.00" from="-1677" to="1568"/>
    <trip id="455" depart="1042.00" from="-819" to="531"/>
    <trip id="456" depart="1043.00" from="-1677" to="1568"/>
    <trip id="457" depart="1047.00" from="275" to="1690"/>
    <trip id="458" depart="1047.00" from="-1677" to="-275"/>
    <trip id="459" depart="1051.00" from="-531" to="1677"/>
    <trip id="460" depart="1053.00" from="-531" to="1104"/>
    <trip id="461" depart="1054.00" from="-1085" to="1568"/>
    <trip id="462" depart="1063.00" from="-1677" to="1104"/>
    <trip id="463" depart="1064.00" from="-939" to="531"/>
    <trip id="464" depart="1069.00" from="275" to="1677"/>
    <trip id="465" depart="1071.00" from="-1102" to="819"/>
    <trip id="466" depart="1072.00" from="-939" to="819"/>
    <trip id="467" depart="1073.00" from="-1102" to="1085"/>
    <trip id="468" depart="1077.00" from="-1085" to="939"/>
    <trip id="469" depart="1078.00" from="-819" to="819"/>
    <trip id="470" depart="1083.00" from="-1085" to="531"/>
    <trip id="471" depart="1084.00" from="-531" to="1568"/>
    <trip id="472" depart="1092.00" from="-1089" to="-275"/>
    <trip id="473" depart="1093.00" from="-531" to="531"/>
    <trip id="474" depart="1094.00" from="-1568" to="531"/>
    <trip id="475" depart="1096.00" from="275" to="531"/>
    <trip id="476" depart="1097.00" from="-1677" to="1085"/>
    <trip id="477" depart="1097.00" from="330" to="819"/>
    <trip id="478" depart="1098.00" from="-1690" to="819"/>
    <trip id="479" depart="1099.00" from="-1102" to="1085"/>
    <trip id="480" depart="1102.00" from="-1102" to="939"/>
    <trip id="481" depart="1108.00" from="275" to="1568"/>
    <trip id="482" depart="1109.00" from="275" to="1690"/>