<?xml version="1.0" encoding="UTF-8"?>

<!-- generated on 2025-03-10 19:14:55.927015 by randomTrips.py v1_19_0+1770-8bb5c24c187
<configuration>
    <net-file value="random_subnetwork_3.net.xml"/>
    <output-trip-file value="random_subnetwork_3_heavy.trips.xml"/>
    <length value="True"/>
    <fringe-factor value="100"/>
    <min-distance value="800.0"/>
    <remove-loops value="True"/>
    <validate value="True"/>
    <period value="1.5496757160075763"/>
    <random-depart value="True"/>
    <binomial value="10"/>
</configuration>
-->

<!-- generated on 2025-03-10 19:14:55 by Eclipse SUMO duarouter Version v1_19_0+1770-8bb5c24c187
<configuration xmlns:xsi="http://www.w3.org/2001/XMLSchema-instance" xsi:noNamespaceSchemaLocation="http://sumo.dlr.de/xsd/duarouterConfiguration.xsd">

    <input>
        <net-file value="random_subnetwork_3.net.xml"/>
        <route-files value="random_subnetwork_3_heavy.trips.xml"/>
    </input>

    <output>
        <output-file value="random_subnetwork_3_heavy.trips.xml.tmp"/>
        <alternatives-output value="NUL"/>
        <write-trips value="true"/>
    </output>

    <processing>
        <remove-loops value="true"/>
    </processing>

    <time>
        <begin value="0.0"/>
        <end value="3600.0"/>
    </time>

    <report>
        <no-warnings value="true"/>
        <ignore-errors value="true"/>
        <no-step-log value="true"/>
    </report>

</duarouterConfiguration>
-->

<routes xmlns:xsi="http://www.w3.org/2001/XMLSchema-instance" xsi:noNamespaceSchemaLocation="http://sumo.dlr.de/xsd/routes_file.xsd">
    <trip id="0" depart="1.00" from="301" to="654"/>
    <trip id="1" depart="9.00" from="301" to="1799"/>
    <trip id="2" depart="10.00" from="-654" to="-301"/>
    <trip id="3" depart="24.00" from="301" to="1799"/>
    <trip id="4" depart="26.00" from="301" to="654"/>
    <trip id="5" depart="27.00" from="301" to="654"/>
    <trip id="6" depart="34.00" from="301" to="654"/>
    <trip id="7" depart="36.00" from="-1799" to="-301"/>
    <trip id="8" depart="38.00" from="301" to="654"/>
    <trip id="9" depart="42.00" from="-1799" to="-301"/>
    <trip id="10" depart="52.00" from="301" to="654"/>
    <trip id="11" depart="60.00" from="-654" to="-301"/>
    <trip id="12" depart="80.00" from="301" to="1799"/>
    <trip id="13" depart="91.00" from="-1799" to="-301"/>
    <trip id="14" depart="101.00" from="301" to="654"/>
    <trip id="15" depart="104.00" from="-654" to="-301"/>
    <trip id="16" depart="105.00" from="301" to="654"/>
    <trip id="17" depart="125.00" from="301" to="654"/>
    <trip id="18" depart="166.00" from="301" to="1799"/>
    <trip id="19" depart="169.00" from="301" to="1799"/>
    <trip id="20" depart="172.00" from="-1799" to="-301"/>
    <trip id="21" depart="180.00" from="301" to="1799"/>
    <trip id="22" depart="194.00" from="-654" to="-301"/>
    <trip id="23" depart="194.00" from="301" to="654"/>
    <trip id="24" depart="197.00" from="-1799" to="-301"/>
    <trip id="25" depart="202.00" from="-654" to="-301"/>
    <trip id="26" depart="213.00" from="-654" to="-301"/>
    <trip id="27" depart="221.00" from="301" to="654"/>
    <trip id="28" depart="230.00" from="301" to="654"/>
    <trip id="29" depart="232.00" from="301" to="1799"/>
    <trip id="30" depart="234.00" from="-654" to="-301"/>
    <trip id="31" depart="234.00" from="301" to="1799"/>
    <trip id="32" depart="235.00" from="-1799" to="-301"/>
    <trip id="33" depart="249.00" from="-654" to="-301"/>
    <trip id="34" depart="255.00" from="-1799" to="-301"/>
    <trip id="35" depart="264.00" from="-654" to="-301"/>
    <trip id="36" depart="270.00" from="-1799" to="-301"/>
    <trip id="37" depart="290.00" from="301" to="654"/>
    <trip id="38" depart="290.00" from="-654" to="-301"/>
    <trip id="39" depart="299.00" from="301" to="1799"/>
    <trip id="40" depart="307.00" from="301" to="654"/>
    <trip id="41" depart="318.00" from="-654" to="-301"/>
    <trip id="42" depart="331.00" from="301" to="654"/>
    <trip id="43" depart="336.00" from="301" to="654"/>
    <trip id="44" depart="338.00" from="-654" to="-301"/>
    <trip id="45" depart="343.00" from="301" to="1799"/>
    <trip id="46" depart="347.00" from="-1799" to="-301"/>
    <trip id="47" depart="366.00" from="301" to="1799"/>
    <trip id="48" depart="368.00" from="-1799" to="-301"/>
    <trip id="49" depart="371.00" from="301" to="1799"/>
    <trip id="50" depart="376.00" from="301" to="1799"/>
    <trip id="51" depart="381.00" from="-654" to="-301"/>
    <trip id="52" depart="394.00" from="301" to="1799"/>
    <trip id="53" depart="394.00" from="-1799" to="-301"/>
    <trip id="54" depart="403.00" from="-654" to="-301"/>
    <trip id="55" depart="407.00" from="-1799" to="-301"/>
    <trip id="56" depart="421.00" from="301" to="1799"/>
    <trip id="57" depart="429.00" from="301" to="654"/>
    <trip id="58" depart="450.00" from="-654" to="-301"/>
    <trip id="59" depart="456.00" from="-1799" to="-301"/>
    <trip id="60" depart="457.00" from="-1799" to="-301"/>
    <trip id="61" depart="464.00" from="301" to="654"/>
    <trip id="62" depart="476.00" from="-1799" to="-301"/>
    <trip id="63" depart="478.00" from="301" to="1799"/>
    <trip id="64" depart="492.00" from="301" to="1799"/>
    <trip id="65" depart="495.00" from="-1799" to="-301"/>
    <trip id="66" depart="503.00" from="301" to="1799"/>
    <trip id="67" depart="512.00" from="-1799" to="-301"/>
    <trip id="68" depart="514.00" from="-1799" to="-301"/>
    <trip id="69" depart="523.00" from="301" to="1799"/>
    <trip id="70" depart="523.00" from="301" to="1799"/>
    <trip id="71" depart="537.00" from="301" to="1799"/>
    <trip id="72" depart="543.00" from="301" to="1799"/>
    <trip id="73" depart="548.00" from="-1799" to="-301"/>
    <trip id="74" depart="598.00" from="-1799" to="-301"/>
    <trip id="75" depart="608.00" from="301" to="654"/>
    <trip id="76" depart="618.00" from="-1799" to="-301"/>
    <trip id="77" depart="622.00" from="-654" to="-301"/>
    <trip id="78" depart="634.00" from="301" to="654"/>
    <trip id="79" depart="657.00" from="301" to="1799"/>
    <trip id="80" depart="660.00" from="301" to="654"/>
    <trip id="81" depart="662.00" from="-654" to="-301"/>
    <trip id="82" depart="668.00" from="-1799" to="-301"/>
    <trip id="83" depart="673.00" from="301" to="654"/>
    <trip id="84" depart="676.00" from="-654" to="-301"/>
    <trip id="85" depart="678.00" from="-1799" to="-301"/>
    <trip id="86" depart="691.00" from="301" to="1799"/>
    <trip id="87" depart="694.00" from="301" to="654"/>
    <trip id="88" depart="700.00" from="-1799" to="-301"/>
    <trip id="89" depart="706.00" from="-654" to="-301"/>
    <trip id="90" depart="709.00" from="301" to="1799"/>
    <trip id="91" depart="719.00" from="-1799" to="-301"/>
    <trip id="92" depart="724.00" from="-654" to="-301"/>
    <trip id="93" depart="727.00" from="301" to="654"/>
    <trip id="94" depart="730.00" from="-1799" to="-301"/>
    <trip id="95" depart="732.00" from="301" to="1799"/>
    <trip id="96" depart="743.00" from="301" to="1799"/>
    <trip id="97" depart="749.00" from="301" to="654"/>
    <trip id="98" depart="757.00" from="-1799" to="-301"/>
    <trip id="99" depart="761.00" from="-654" to="-301"/>
    <trip id="100" depart="764.00" from="301" to="1799"/>
    <trip id="101" depart="771.00" from="-654" to="-301"/>
    <trip id="102" depart="792.00" from="-654" to="-301"/>
    <trip id="103" depart="805.00" from="301" to="1799"/>
    <trip id="104" depart="808.00" from="-654" to="-301"/>
    <trip id="105" depart="812.00" from="301" to="654"/>
    <trip id="106" depart="817.00" from="-654" to="-301"/>
    <trip id="107" depart="826.00" from="301" to="1799"/>
    <trip id="108" depart="833.00" from="301" to="654"/>
    <trip id="109" depart="834.00" from="301" to="654"/>
    <trip id="110" depart="840.00" from="-654" to="-301"/>
    <trip id="111" depart="849.00" from="-1799" to="-301"/>
    <trip id="112" depart="856.00" from="301" to="1799"/>
    <trip id="113" depart="860.00" from="-1799" to="-301"/>
    <trip id="114" depart="865.00" from="-1799" to="-301"/>
    <trip id="115" depart="874.00" from="301" to="654"/>
    <trip id="116" depart="882.00" from="-1799" to="-301"/>
    <trip id="117" depart="888.00" from="-654" to="-301"/>
    <trip id="118" depart="891.00" from="-1799" to="-301"/>
    <trip id="119" depart="895.00" from="301" to="654"/>
    <trip id="120" depart="948.00" from="-654" to="-301"/>
    <trip id="121" depart="951.00" from="301" to="654"/>
    <trip id="122" depart="953.00" from="-1799" to="-301"/>
    <trip id="123" depart="969.00" from="301" to="654"/>
    <trip id="124" depart="974.00" from="-654" to="-301"/>
    <trip id="125" depart="984.00" from="301" to="654"/>
    <trip id="126" depart="988.00" from="-654" to="-301"/>
    <trip id="127" depart="995.00" from="301" to="1799"/>
    <trip id="128" depart="999.00" from="-654" to="-301"/>
    <trip id="129" depart="1006.00" from="301" to="1799"/>
    <trip id="130" depart="1017.00" from="-654" to="-301"/>
    <trip id="131" depart="1028.00" from="301" to="654"/>
    <trip id="132" depart="1043.00" from="301" to="654"/>
    <trip id="133" depart="1062.00" from="-654" to="-301"/>
    <trip id="134" depart="1068.00" from="301" to="1799"/>
    <trip id="135" depart="1088.00" from="301" to="654"/>
    <trip id="136" depart="1089.00" from="-654" to="-301"/>
    <trip id="137" depart="1106.00" from="-1799" to="-301"/>
    <trip id="138" depart="1114.00" from="-654" to="-301"/>
    <trip id="139" depart="1118.00" from="-654" to="-301"/>
    <trip id="140" depart="1130.00" from="-1799" to="-301"/>
    <trip id="141" depart="1150.00" from="301" to="1799"/>
    <trip id="142" depart="1163.00" from="301" to="654"/>
    <trip id="143" depart="1164.00" from="-1799" to="-301"/>
    <trip id="144" depart="1165.00" from="-1799" to="-301"/>
    <trip id="145" depart="1169.00" from="301" to="1799"/>
    <trip id="146" depart="1174.00" from="-654" to="-301"/>
    <trip id="147" depart="1182.00" from="-654" to="-301"/>
    <trip id="148" depart="1191.00" from="-1799" to="-301"/>
    <trip id="149" depart="1197.00" from="-1799" to="-301"/>
    <trip id="150" depart="1197.00" from="-654" to="-301"/>
    <trip id="151" depart="1201.00" from="301" to="654"/>
    <trip id="152" depart="1211.00" from="301" to="500"/>
    <trip id="153" depart="1217.00" from="-654" to="-301"/>
    <trip id="154" depart="1218.00" from="-1799" to="-301"/>
    <trip id="155" depart="1223.00" from="-654" to="-301"/>
    <trip id="156" depart="1233.00" from="301" to="1799"/>
    <trip id="157" depart="1236.00" from="-654" to="-301"/>
    <trip id="158" depart="1249.00" from="-1799" to="-301"/>
    <trip id="159" depart="1250.00" from="301" to="1799"/>
    <trip id="160" depart="1261.00" from="-654" to="-301"/>
    <trip id="161" depart="1268.00" from="301" to="654"/>
    <trip id="162" depart="1268.00" from="-1799" to="-301"/>
    <trip id="163" depart="1278.00" from="301" to="654"/>
    <trip id="164" depart="1278.00" from="301" to="654"/>
    <trip id="165" depart="1287.00" from="-654" to="-301"/>
    <trip id="166" depart="1292.00" from="301" to="654"/>
    <trip id="167" depart="1302.00" from="-1799" to="-301"/>
    <trip id="168" depart="1313.00" from="301" to="1799"/>
    <trip id="169" depart="1314.00" from="-1799" to="-301"/>
    <trip id="170" depart="1320.00" from="301" to="654"/>
    <trip id="171" depart="1332.00" from="301" to="654"/>
    <trip id="172" depart="1335.00" from="-654" to="-301"/>
    <trip id="173" depart="1339.00" from="301" to="1799"/>
    <trip id="174" depart="1351.00" from="-1799" to="-301"/>
    <trip id="175" depart="1352.00" from="-1799" to="-301"/>
    <trip id="176" depart="1370.00" from="301" to="654"/>
    <trip id="177" depart="1374.00" from="-654" to="-301"/>
    <trip id="178" depart="1391.00" from="-1799" to="-301"/>
    <trip id="179" depart="1399.00" from="301" to="1799"/>
    <trip id="180" depart="1418.00" from="-654" to="-301"/>
    <trip id="181" depart="1420.00" from="-654" to="-301"/>
    <trip id="182" depart="1421.00" from="-654" to="-301"/>
    <trip id="183" depart="1421.00" from="-1799" to="-301"/>
    <trip id="184" depart="1439.00" from="-1799" to="-301"/>
    <trip id="185" depart="1444.00" from="-1799" to="-301"/>
    <trip id="186" depart="1456.00" from="301" to="1799"/>
    <trip id="187" depart="1460.00" from="301" to="654"/>
    <trip id="188" depart="1468.00" from="-654" to="-301"/>
    <trip id="189" depart="1475.00" from="301" to="1799"/>
    <trip id="190" depart="1508.00" from="301" to="654"/>
    <trip id="191" depart="1518.00" from="301" to="654"/>
    <trip id="192" depart="1522.00" from="-654" to="-301"/>
    <trip id="193" depart="1528.00" from="-654" to="-301"/>
    <trip id="194" depart="1535.00" from="-1799" to="-301"/>
    <trip id="195" depart="1549.00" from="-1799" to="-301"/>
    <trip id="196" depart="1553.00" from="-654" to="-301"/>
    <trip id="197" depart="1556.00" from="-654" to="-301"/>
    <trip id="198" depart="1559.00" from="301" to="654"/>
    <trip id="199" depart="1563.00" from="-654" to="-301"/>
    <trip id="200" depart="1571.00" from="-1799" to="-301"/>
    <trip id="201" depart="1581.00" from="-654" to="-301"/>
    <trip id="202" depart="1606.00" from="-1799" to="-301"/>
    <trip id="203" depart="1619.00" from="-654" to="-301"/>
    <trip id="204" depart="1626.00" from="301" to="1799"/>
    <trip id="205" depart="1635.00" from="301" to="654"/>
    <trip id="206" depart="1649.00" from="301" to="1799"/>
    <trip id="207" depart="1662.00" from="301" to="1799"/>
    <trip id="208" depart="1672.00" from="-654" to="-301"/>
    <trip id="209" depart="1672.00" from="301" to="654"/>
    <trip id="210" depart="1677.00" from="301" to="654"/>
    <trip id="211" depart="1678.00" from="-1799" to="-301"/>
    <trip id="212" depart="1685.00" from="301" to="654"/>
    <trip id="213" depart="1689.00" from="-654" to="-301"/>
    <trip id="214" depart="1694.00" from="301" to="654"/>
    <trip id="215" depart="1704.00" from="-1799" to="-301"/>
    <trip id="216" depart="1713.00" from="301" to="1799"/>
    <trip id="217" depart="1729.00" from="301" to="654"/>
    <trip id="218" depart="1736.00" from="301" to="1799"/>
    <trip id="219" depart="1739.00" from="-1799" to="-301"/>
    <trip id="220" depart="1746.00" from="-1799" to="-301"/>
    <trip id="221" depart="1750.00" from="-1799" to="-301"/>
    <trip id="222" depart="1753.00" from="-654" to="-301"/>
    <trip id="223" depart="1764.00" from="-1799" to="-301"/>
    <trip id="224" depart="1765.00" from="-1799" to="-301"/>
    <trip id="225" depart="1766.00" from="-1799" to="-301"/>
    <trip id="226" depart="1772.00" from="301" to="654"/>
    <trip id="227" depart="1783.00" from="-1799" to="-301"/>
    <trip id="228" depart="1790.00" from="-1799" to="-301"/>
    <trip id="229" depart="1792.00" from="301" to="1799"/>
    <trip id="230" depart="1797.00" from="-1799" to="-301"/>
    <trip id="231" depart="1798.00" from="301" to="654"/>
    <trip id="232" depart="1800.00" from="301" to="654"/>
    <trip id="233" depart="1805.00" from="301" to="654"/>
    <trip id="234" depart="1806.00" from="301" to="654"/>
    <trip id="235" depart="1817.00" from="301" to="1799"/>
    <trip id="236" depart="1818.00" from="301" to="1799"/>
    <trip id="237" depart="1827.00" from="-654" to="-301"/>
    <trip id="238" depart="1831.00" from="-1799" to="-301"/>
    <trip id="239" depart="1832.00" from="-654" to="-301"/>
    <trip id="240" depart="1832.00" from="-1799" to="-301"/>
    <trip id="241" depart="1832.00" from="301" to="654"/>
    <trip id="242" depart="1852.00" from="-654" to="-301"/>
    <trip id="243" depart="1853.00" from="-654" to="-301"/>
    <trip id="244" depart="1861.00" from="301" to="654"/>
    <trip id="245" depart="1865.00" from="301" to="1799"/>
    <trip id="246" depart="1878.00" from="-654" to="-301"/>
    <trip id="247" depart="1879.00" from="-1799" to="-301"/>
    <trip id="248" depart="1886.00" from="-654" to="-301"/>
    <trip id="249" depart="1888.00" from="301" to="1799"/>
    <trip id="250" depart="1893.00" from="-654" to="-301"/>
    <trip id="251" depart="1905.00" from="-654" to="-301"/>
    <trip id="252" depart="1906.00" from="301" to="1799"/>
    <trip id="253" depart="1909.00" from="-654" to="-301"/>
    <trip id="254" depart="1911.00" from="-1799" to="-301"/>
    <trip id="255" depart="1912.00" from="301" to="654"/>
    <trip id="256" depart="1919.00" from="301" to="654"/>
    <trip id="257" depart="1922.00" from="-1799" to="-301"/>
    <trip id="258" depart="1927.00" from="301" to="1799"/>
    <trip id="259" depart="1929.00" from="-654" to="-301"/>
    <trip id="260" depart="1934.00" from="-1799" to="-301"/>
    <trip id="261" depart="1934.00" from="-654" to="-301"/>
    <trip id="262" depart="1939.00" from="-654" to="-301"/>
    <trip id="263" depart="1941.00" from="-654" to="-301"/>
    <trip id="264" depart="1955.00" from="-1799" to="-301"/>
    <trip id="265" depart="1957.00" from="301" to="1799"/>
    <trip id="266" depart="1961.00" from="301" to="654"/>
    <trip id="267" depart="1962.00" from="-654" to="-301"/>
    <trip id="268" depart="1968.00" from="301" to="1799"/>
    <trip id="269" depart="2003.00" from="301" to="1799"/>
    <trip id="270" depart="2011.00" from="-654" to="-301"/>
    <trip id="271" depart="2013.00" from="-654" to="-301"/>
    <trip id="272" depart="2016.00" from="-1799" to="-301"/>
    <trip id="273" depart="2023.00" from="-654" to="-301"/>
    <trip id="274" depart="2033.00" from="301" to="1799"/>
    <trip id="275" depart="2035.00" from="-1799" to="-301"/>
    <trip id="276" depart="2036.00" from="301" to="1799"/>
    <trip id="277" depart="2041.00" from="301" to="654"/>
    <trip id="278" depart="2051.00" from="301" to="654"/>
    <trip id="279" depart="2052.00" from="-1799" to="-301"/>
    <trip id="280" depart="2056.00" from="301" to="1799"/>
    <trip id="281" depart="2067.00" from="-654" to="-301"/>
    <trip id="282" depart="2068.00" from="-1799" to="-301"/>
    <trip id="283" depart="2074.00" from="-1799" to="-301"/>
    <trip id="284" depart="2075.00" from="-1799" to="-301"/>
    <trip id="285" depart="2091.00" from="-654" to="-301"/>
    <trip id="286" depart="2095.00" from="301" to="1799"/>
    <trip id="287" depart="2097.00" from="-654" to="-301"/>
    <trip id="288" depart="2103.00" from="301" to="654"/>
    <trip id="289" depart="2106.00" from="301" to="654"/>
    <trip id="290" depart="2113.00" from="301" to="1799"/>
    <trip id="291" depart="2124.00" from="-654" to="-301"/>
    <trip id="292" depart="2130.00" from="301" to="654"/>
    <trip id="293" depart="2133.00" from="-1799" to="-301"/>
    <trip id="294" depart="2134.00" from="301" to="654"/>
    <trip id="295" depart="2136.00" from="-654" to="-301"/>
    <trip id="296" depart="2140.00" from="-654" to="-301"/>
    <trip id="297" depart="2155.00" from="301" to="1799"/>
    <trip id="298" depart="2156.00" from="301" to="654"/>
    <trip id="299" depart="2157.00" from="-1799" to="-301"/>
    <trip id="300" depart="2157.00" from="-1799" to="-301"/>
    <trip id="301" depart="2176.00" from="-654" to="-301"/>
    <trip id="302" depart="2176.00" from="301" to="1799"/>
    <trip id="303" depart="2183.00" from="301" to="654"/>
    <trip id="304" depart="2212.00" from="301" to="1799"/>
    <trip id="305" depart="2216.00" from="301" to="1799"/>
    <trip id="306" depart="2219.00" from="301" to="1799"/>
    <trip id="307" depart="2225.00" from="-654" to="-301"/>
    <trip id="308" depart="2231.00" from="-654" to="-301"/>
    <trip id="309" depart="2243.00" from="301" to="654"/>
    <trip id="310" depart="2260.00" from="301" to="1799"/>
    <trip id="311" depart="2265.00" from="301" to="1799"/>
    <trip id="312" depart="2273.00" from="-654" to="-301"/>
    <trip id="313" depart="2279.00" from="301" to="654"/>
    <trip id="314" depart="2305.00" from="-654" to="-301"/>
    <trip id="315" depart="2351.00" from="-654" to="-301"/>
    <trip id="316" depart="2352.00" from="301" to="1799"/>
    <trip id="317" depart="2355.00" from="301" to="1799"/>
    <trip id="318" depart="2357.00" from="-654" to="-301"/>
    <trip id="319" depart="2375.00" from="-654" to="-301"/>
    <trip id="320" depart="2382.00" from="-654" to="-301"/>
    <trip id="321" depart="2384.00" from="301" to="654"/>
    <trip id="322" depart="2388.00" from="-654" to="-301"/>
    <trip id="323" depart="2396.00" from="-1799" to="-301"/>
    <trip id="324" depart="2402.00" from="301" to="654"/>
    <trip id="325" depart="2416.00" from="-654" to="-301"/>
    <trip id="326" depart="2421.00" from="301" to="654"/>
    <trip id="327" depart="2422.00" from="-654" to="-301"/>
    <trip id="328" depart="2437.00" from="-1799" to="-301"/>
    <trip id="329" depart="2442.00" from="301" to="654"/>
    <trip id="330" depart="2445.00" from="-654" to="-301"/>
    <trip id="331" depart="2445.00" from="301" to="1799"/>
    <trip id="332" depart="2448.00" from="-1799" to="-301"/>
    <trip id="333" depart="2452.00" from="301" to="1799"/>
    <trip id="334" depart="2465.00" from="301" to="654"/>
    <trip id="335" depart="2483.00" from="301" to="1799"/>
    <trip id="336" depart="2489.00" from="-1799" to="-301"/>
    <trip id="337" depart="2489.00" from="-1799" to="-301"/>
    <trip id="338" depart="2490.00" from="301" to="654"/>
    <trip id="339" depart="2495.00" from="-1799" to="-301"/>
    <trip id="340" depart="2501.00" from="301" to="1799"/>
    <trip id="341" depart="2506.00" from="301" to="1799"/>
    <trip id="342" depart="2510.00" from="-1799" to="-301"/>
    <trip id="343" depart="2517.00" from="-654" to="-301"/>
    <trip id="344" depart="2525.00" from="301" to="1799"/>
    <trip id="345" depart="2541.00" from="-1799" to="-301"/>
    <trip id="346" depart="2544.00" from="-1799" to="-301"/>
    <trip id="347" depart="2546.00" from="-1799" to="-301"/>
    <trip id="348" depart="2553.00" from="301" to="1799"/>
    <trip id="349" depart="2557.00" from="301" to="1799"/>
    <trip id="350" depart="2557.00" from="301" to="1799"/>
    <trip id="351" depart="2559.00" from="-654" to="-301"/>
    <trip id="352" depart="2578.00" from="301" to="1799"/>
    <trip id="353" depart="2585.00" from="301" to="1799"/>
    <trip id="354" depart="2602.00" from="-654" to="-301"/>
    <trip id="355" depart="2608.00" from="301" to="1799"/>
    <trip id="356" depart="2615.00" from="301" to="1799"/>
    <trip id="357" depart="2628.00" from="-654" to="-301"/>
    <trip id="358" depart="2635.00" from="301" to="654"/>
    <trip id="359" depart="2637.00" from="-1799" to="-301"/>
    <trip id="360" depart="2641.00" from="-1799" to="-301"/>
    <trip id="361" depart="2654.00" from="301" to="1799"/>
    <trip id="362" depart="2660.00" from="-1799" to="-301"/>
    <trip id="363" depart="2668.00" from="301" to="1799"/>
    <trip id="364" depart="2669.00" from="-1799" to="-301"/>
    <trip id="365" depart="2675.00" from="301" to="654"/>
    <trip id="366" depart="2684.00" from="-654" to="-301"/>
    <trip id="367" depart="2687.00" from="301" to="654"/>
    <trip id="368" depart="2687.00" from="-1799" to="-301"/>
    <trip id="369" depart="2690.00" from="301" to="654"/>
    <trip id="370" depart="2701.00" from="-654" to="-301"/>
    <trip id="371" depart="2713.00" from="-1799" to="-301"/>
    <trip id="372" depart="2715.00" from="-1799" to="-301"/>
    <trip id="373" depart="2735.00" from="301" to="1799"/>
    <trip id="374" depart="2735.00" from="301" to="1799"/>
    <trip id="375" depart="2738.00" from="-654" to="-301"/>
    <trip id="376" depart="2746.00" from="-1799" to="-301"/>
    <trip id="377" depart="2753.00" from="301" to="654"/>
    <trip id="378" depart="2753.00" from="301" to="1799"/>
    <trip id="379" depart="2759.00" from="301" to="654"/>
    <trip id="380" depart="2763.00" from="301" to="654"/>
    <trip id="381" depart="2773.00" from="301" to="654"/>
    <trip id="382" depart="2775.00" from="-654" to="-301"/>
    <trip id="383" depart="2779.00" from="-1799" to="-301"/>
    <trip id="384" depart="2800.00" from="301" to="654"/>
    <trip id="385" depart="2805.00" from="301" to="654"/>
    <trip id="386" depart="2807.00" from="-654" to="-301"/>
    <trip id="387" depart="2810.00" from="301" to="1799"/>
    <trip id="388" depart="2816.00" from="301" to="1799"/>
    <trip id="389" depart="2822.00" from="301" to="654"/>
    <trip id="390" depart="2830.00" from="301" to="1799"/>
    <trip id="391" depart="2830.00" from="-654" to="-301"/>
    <trip id="392" depart="2837.00" from="-654" to="-301"/>
    <trip id="393" depart="2843.00" from="-654" to="-301"/>
    <trip id="394" depart="2843.00" from="301" to="654"/>
    <trip id="395" depart="2866.00" from="301" to="654"/>
    <trip id="396" depart="2870.00" from="301" to="1799"/>
    <trip id="397" depart="2876.00" from="301" to="654"/>
    <trip id="398" depart="2882.00" from="-654" to="-301"/>
    <trip id="399" depart="2883.00" from="-1799" to="-301"/>
    <trip id="400" depart="2893.00" from="-654" to="-301"/>
    <trip id="401" depart="2908.00" from="-1799" to="-301"/>
    <trip id="402" depart="2919.00" from="301" to="654"/>
    <trip id="403" depart="2934.00" from="301" to="1799"/>
    <trip id="404" depart="2943.00" from="301" to="1799"/>
    <trip id="405" depart="2955.00" from="-654" to="-301"/>
    <trip id="406" depart="2957.00" from="-654" to="-301"/>
    <trip id="407" depart="2960.00" from="-1799" to="-301"/>
    <trip id="408" depart="2964.00" from="-654" to="-301"/>
    <trip id="409" depart="2978.00" from="-654" to="-301"/>
    <trip id="410" depart="2985.00" from="301" to="1799"/>
    <trip id="411" depart="3002.00" from="301" to="654"/>
    <trip id="412" depart="3008.00" from="-654" to="-301"/>
    <trip id="413" depart="3017.00" from="-1799" to="-301"/>
    <trip id="414" depart="3027.00" from="-1799" to="-301"/>
    <trip id="415" depart="3033.00" from="301" to="654"/>
    <trip id="416" depart="3044.00" from="-654" to="-301"/>
    <trip id="417" depart="3045.00" from="-654" to="-301"/>
    <trip id="418" depart="3047.00" from="-1799" to="-301"/>
    <trip id="419" depart="3051.00" from="-1799" to="-301"/>
    <trip id="420" depart="3054.00" from="301" to="1799"/>
    <trip id="421" depart="3058.00" from="-654" to="-301"/>
    <trip id="422" depart="3067.00" from="301" to="1799"/>
    <trip id="423" depart="3073.00" from="-654" to="-301"/>
    <trip id="424" depart="3080.00" from="-654" to="-301"/>
    <trip id="425" depart="3093.00" from="301" to="1799"/>
    <trip id="426" depart="3136.00" from="-654" to="-301"/>
    <trip id="427" depart="3141.00" from="301" to="654"/>
    <trip id="428" depart="3144.00" from="301" to="1799"/>
    <trip id="429" depart="3154.00" from="301" to="1799"/>
    <trip id="430" depart="3155.00" from="301" to="654"/>
    <trip id="431" depart="3156.00" from="-1799" to="-301"/>
    <trip id="432" depart="3158.00" from="301" to="1799"/>
    <trip id="433" depart="3167.00" from="-654" to="-301"/>
    <trip id="434" depart="3170.00" from="-654" to="-301"/>
    <trip id="435" depart="3174.00" from="-1799" to="-301"/>
    <trip id="436" depart="3181.00" from="301" to="1799"/>
    <trip id="437" depart="3182.00" from="301" to="654"/>
    <trip id="438" depart="3191.00" from="301" to="654"/>
    <trip id="439" depart="3192.00" from="-654" to="-301"/>
    <trip id="440" depart="3208.00" from="301" to="1799"/>
    <trip id="441" depart="3209.00" from="-654" to="-301"/>
    <trip id="442" depart="3227.00" from="301" to="1799"/>
    <trip id="443" depart="3233.00" from="301" to="654"/>
    <trip id="444" depart="3242.00" from="-1799" to="-301"/>
    <trip id="445" depart="3245.00" from="301" to="1799"/>
    <trip id="446" depart="3251.00" from="301" to="654"/>
    <trip id="447" depart="3252.00" from="-1799" to="-301"/>
    <trip id="448" depart="3263.00" from="301" to="654"/>
    <trip id="449" depart="3288.00" from="-1799" to="-301"/>
    <trip id="450" depart="3292.00" from="301" to="1799"/>
    <trip id="451" depart="3296.00" from="301" to="1799"/>
    <trip id="452" depart="3309.00" from="301" to="1799"/>
    <trip id="453" depart="3311.00" from="301" to="654"/>
    <trip id="454" depart="3312.00" from="301" to="1799"/>
    <trip id="455" depart="3316.00" from="301" to="654"/>
    <trip id="456" depart="3324.00" from="301" to="1799"/>
    <trip id="457" depart="3339.00" from="301" to="654"/>
    <trip id="458" depart="3342.00" from="301" to="654"/>
    <trip id="459" depart="3364.00" from="301" to="1799"/>
    <trip id="460" depart="3366.00" from="-654" to="-301"/>
    <trip id="461" depart="3367.00" from="301" to="654"/>
    <trip id="462" depart="3372.00" from="-1799" to="-301"/>
    <trip id="463" depart="3384.00" from="-1799" to="-301"/>
    <trip id="464" depart="3396.00" from="-654" to="-301"/>
    <trip id="465" depart="3403.00" from="-1799" to="-301"/>
    <trip id="466" depart="3412.00" from="-1799" to="-301"/>
    <trip id="467" depart="3413.00" from="-1799" to="-301"/>
    <trip id="468" depart="3423.00" from="301" to="1799"/>
    <trip id="469" depart="3425.00" from="-654" to="-301"/>
    <trip id="470" depart="3444.00" from="301" to="1799"/>
    <trip id="471" depart="3455.00" from="-1799" to="-301"/>
    <trip id="472" depart="3478.00" from="301" to="1799"/>
    <trip id="473" depart="3503.00" from="301" to="654"/>
    <trip id="474" depart="3519.00" from="301" to="654"/>
    <trip id="475" depart="3522.00" from="301" to="1799"/>
    <trip id="476" depart="3534.00" from="301" to="1799"/>
    <trip id="477" depart="3537.00" from="-654" to="-301"/>
    <trip id="478" depart="3538.00" from="-654" to="-301"/>
    <trip id="479" depart="3549.00" from="-1799" to="-301"/>
    <trip id="480" depart="3550.00" from="301" to="1799"/>