<?xml version="1.0" encoding="UTF-8"?>

<!-- generated on 2025-03-10 19:20:41.602758 by randomTrips.py v1_19_0+1770-8bb5c24c187
<configuration>
    <net-file value="random_subnetwork_3.net.xml"/>
    <output-trip-file value="random_subnetwork_3_heavy.trips.xml"/>
    <fringe-factor value="100"/>
    <min-distance value="800.0"/>
    <remove-loops value="True"/>
    <validate value="True"/>
    <period value="1.5496757160075763"/>
    <random-depart value="True"/>
    <binomial value="10"/>
</configuration>
-->

<!-- generated on 2025-03-10 19:20:41 by Eclipse SUMO duarouter Version v1_19_0+1770-8bb5c24c187
<configuration xmlns:xsi="http://www.w3.org/2001/XMLSchema-instance" xsi:noNamespaceSchemaLocation="http://sumo.dlr.de/xsd/duarouterConfiguration.xsd">

    <input>
        <net-file value="random_subnetwork_3.net.xml"/>
        <route-files value="random_subnetwork_3_heavy.trips.xml"/>
    </input>

    <output>
        <output-file value="random_subnetwork_3_heavy.trips.xml.tmp"/>
        <alternatives-output value="NUL"/>
        <write-trips value="true"/>
    </output>

    <processing>
        <remove-loops value="true"/>
    </processing>

    <time>
        <begin value="0.0"/>
        <end value="3600.0"/>
    </time>

    <report>
        <no-warnings value="true"/>
        <ignore-errors value="true"/>
        <no-step-log value="true"/>
    </report>

</configuration>
-->

<routes xmlns:xsi="http://www.w3.org/2001/XMLSchema-instance" xsi:noNamespaceSchemaLocation="http://sumo.dlr.de/xsd/routes_file.xsd">
    <trip id="9" depart="17.00" from="-663" to="1799" via="500"/>
    <trip id="13" depart="22.00" from="-663" to="1799" via="500"/>
    <trip id="19" depart="29.00" from="-663" to="1799" via="500"/>
    <trip id="34" depart="55.00" from="-663" to="1799" via="500"/>
    <trip id="38" depart="63.00" from="-663" to="1799" via="500"/>
    <trip id="57" depart="95.00" from="-663" to="1799" via="500"/>
    <trip id="62" depart="101.00" from="-663" to="1799" via="500"/>
    <trip id="74" depart="124.00" from="-663" to="1799" via="500"/>
    <trip id="81" depart="134.00" from="-663" to="1799" via="500"/>
    <trip id="90" depart="145.00" from="-663" to="1799" via="500"/>
    <trip id="92" depart="146.00" from="-663" to="1799" via="500"/>
    <trip id="130" depart="194.00" from="-663" to="1799" via="500"/>
    <trip id="142" depart="217.00" from="-663" to="1799" via="500"/>
    <trip id="147" depart="226.00" from="-663" to="1799" via="500"/>
    <trip id="152" depart="238.00" from="-663" to="1799" via="500"/>
    <trip id="156" depart="243.00" from="-663" to="1799" via="500"/>
    <trip id="163" depart="251.00" from="-663" to="1799" via="500"/>
    <trip id="164" depart="254.00" from="-663" to="1799" via="500"/>
    <trip id="185" depart="285.00" from="-663" to="1799" via="500"/>
    <trip id="191" depart="292.00" from="-663" to="1799" via="500"/>
    <trip id="198" depart="304.00" from="-663" to="1799" via="500"/>
    <trip id="204" depart="309.00" from="-663" to="1799" via="500"/>
    <trip id="205" depart="310.00" from="-663" to="1799" via="500"/>
    <trip id="229" depart="346.00" from="-663" to="1799" via="500"/>
    <trip id="231" depart="351.00" from="-663" to="1799" via="500"/>
    <trip id="238" depart="366.00" from="-663" to="1799" via="500"/>
    <trip id="241" depart="369.00" from="-663" to="1799" via="500"/>
    <trip id="244" depart="374.00" from="-663" to="1799" via="500"/>
    <trip id="248" depart="378.00" from="-663" to="1799" via="500"/>
    <trip id="254" depart="388.00" from="-663" to="1799" via="500"/>
    <trip id="266" depart="402.00" from="-663" to="1799" via="500"/>
    <trip id="275" depart="418.00" from="-663" to="1799" via="500"/>
    <trip id="279" depart="424.00" from="-663" to="1799" via="500"/>
    <trip id="290" depart="450.00" from="-663" to="1799" via="500"/>
    <trip id="301" depart="468.00" from="-663" to="1799" via="500"/>
    <trip id="302" depart="469.00" from="-663" to="1799" via="500"/>
    <trip id="309" depart="476.00" from="-663" to="1799" via="500"/>
    <trip id="324" depart="505.00" from="-663" to="1799" via="500"/>
    <trip id="329" depart="515.00" from="-663" to="1799" via="500"/>
    <trip id="343" depart="542.00" from="-663" to="1799" via="500"/>
    <trip id="349" depart="552.00" from="-663" to="1799" via="500"/>
    <trip id="359" depart="570.00" from="-663" to="1799" via="500"/>
    <trip id="370" depart="579.00" from="-663" to="1799" via="500"/>
    <trip id="382" depart="601.00" from="-663" to="1799" via="500"/>
    <trip id="400" depart="623.00" from="-663" to="1799" via="500"/>
    <trip id="403" depart="627.00" from="-663" to="1799" via="500"/>
    <trip id="431" depart="687.00" from="-663" to="1799" via="500"/>
    <trip id="433" depart="691.00" from="-663" to="1799" via="500"/>
    <trip id="434" depart="692.00" from="-663" to="1799" via="500"/>
    <trip id="449" depart="723.00" from="-663" to="1799" via="500"/>
    <trip id="456" depart="727.00" from="-663" to="1799" via="500"/>
    <trip id="467" depart="749.00" from="-663" to="1799" via="500"/>
    <trip id="487" depart="784.00" from="-663" to="1799" via="500"/>
    <trip id="493" depart="795.00" from="-663" to="1799" via="500"/>
    <trip id="503" depart="807.00" from="-663" to="1799" via="500"/>
    <trip id="518" depart="835.00" from="-663" to="1799" via="500"/>
    <trip id="541" depart="869.00" from="-663" to="1799" via="500"/>
    <trip id="544" depart="872.00" from="-663" to="1799" via="500"/>
    <trip id="552" depart="883.00" from="-663" to="1799" via="500"/>
    <trip id="559" depart="896.00" from="-663" to="1799" via="500"/>
    <trip id="560" depart="897.00" from="-663" to="1799" via="500"/>
    <trip id="563" depart="900.00" from="-663" to="1799" via="500"/>
    <trip id="567" depart="906.00" from="-663" to="1799" via="500"/>
    <trip id="588" depart="937.00" from="-663" to="1799" via="500"/>
    <trip id="591" depart="940.00" from="-663" to="1799" via="500"/>
    <trip id="599" depart="951.00" from="-663" to="1799" via="500"/>
    <trip id="604" depart="956.00" from="-663" to="1799" via="500"/>
    <trip id="607" depart="957.00" from="-663" to="1799" via="500"/>
    <trip id="627" depart="990.00" from="-663" to="1799" via="500"/>
    <trip id="630" depart="999.00" from="-663" to="1799" via="500"/>
    <trip id="632" depart="999.00" from="-663" to="1799" via="500"/>
    <trip id="641" depart="1017.00" from="-663" to="1799" via="500"/>
    <trip id="665" depart="1048.00" from="-663" to="1799" via="500"/>
    <trip id="675" depart="1061.00" from="-663" to="1799" via="500"/>
    <trip id="685" depart="1075.00" from="-663" to="1799" via="500"/>
    <trip id="694" depart="1083.00" from="-663" to="1799" via="500"/>
    <trip id="703" depart="1098.00" from="-663" to="1799" via="500"/>
    <trip id="704" depart="1098.00" from="-663" to="1799" via="500"/>
    <trip id="716" depart="1113.00" from="-663" to="1799" via="500"/>
    <trip id="723" depart="1124.00" from="-663" to="1799" via="500"/>
    <trip id="733" depart="1140.00" from="-663" to="1799" via="500"/>
    <trip id="735" depart="1141.00" from="-663" to="1799" via="500"/>
    <trip id="741" depart="1145.00" from="-663" to="1799" via="500"/>
    <trip id="744" depart="1150.00" from="-663" to="1799" via="500"/>
    <trip id="755" depart="1165.00" from="-663" to="1799" via="500"/>
    <trip id="777" depart="1194.00" from="-663" to="1799" via="500"/>
    <trip id="778" depart="1194.00" from="-663" to="1799" via="500"/>
    <trip id="785" depart="1202.00" from="-663" to="1799" via="500"/>
    <trip id="786" depart="1202.00" from="-663" to="1799" via="500"/>
    <trip id="791" depart="1216.00" from="-663" to="1799" via="500"/>
    <trip id="794" depart="1221.00" from="-663" to="1799" via="500"/>
    <trip id="795" depart="1222.00" from="-663" to="1799" via="500"/>
    <trip id="810" depart="1243.00" from="-663" to="1799" via="500"/>
    <trip id="811" depart="1244.00" from="-663" to="1799" via="500"/>
    <trip id="812" depart="1246.00" from="-663" to="1799" via="500"/>
    <trip id="818" depart="1253.00" from="-663" to="1799" via="500"/>
    <trip id="822" depart="1258.00" from="-663" to="1799" via="500"/>
    <trip id="823" depart="1258.00" from="-663" to="1799" via="500"/>
    <trip id="826" depart="1263.00" from="-663" to="1799" via="500"/>
    <trip id="834" depart="1273.00" from="-663" to="1799" via="500"/>
    <trip id="837" depart="1276.00" from="-663" to="1799" via="500"/>
    <trip id="838" depart="1278.00" from="-663" to="1799" via="500"/>
    <trip id="855" depart="1306.00" from="-663" to="1799" via="500"/>
    <trip id="856" depart="1307.00" from="-663" to="1799" via="500"/>
    <trip id="871" depart="1327.00" from="-663" to="1799" via="500"/>
    <trip id="875" depart="1335.00" from="-663" to="1799" via="500"/>
    <trip id="881" depart="1348.00" from="-663" to="1799" via="500"/>
    <trip id="883" depart="1349.00" from="-663" to="1799" via="500"/>
    <trip id="894" depart="1364.00" from="-663" to="1799" via="500"/>
    <trip id="895" depart="1364.00" from="-663" to="1799" via="500"/>
    <trip id="915" depart="1400.00" from="-663" to="1799" via="500"/>
    <trip id="917" depart="1402.00" from="-663" to="1799" via="500"/>
    <trip id="918" depart="1403.00" from="-663" to="1799" via="500"/>
    <trip id="923" depart="1431.00" from="-663" to="1799" via="500"/>
    <trip id="936" depart="1450.00" from="-663" to="1799" via="500"/>
    <trip id="940" depart="1456.00" from="-663" to="1799" via="500"/>
    <trip id="951" depart="1476.00" from="-663" to="1799" via="500"/>
    <trip id="953" depart="1482.00" from="-663" to="1799" via="500"/>
    <trip id="954" depart="1482.00" from="-663" to="1799" via="500"/>
    <trip id="956" depart="1484.00" from="-663" to="1799" via="500"/>
    <trip id="969" depart="1503.00" from="-663" to="1799" via="500"/>
    <trip id="978" depart="1518.00" from="-663" to="1799" via="500"/>
    <trip id="1007" depart="1561.00" from="-663" to="1799" via="500"/>
    <trip id="1024" depart="1585.00" from="-663" to="1799" via="500"/>
    <trip id="1037" depart="1602.00" from="-663" to="1799" via="500"/>
    <trip id="1040" depart="1609.00" from="-663" to="1799" via="500"/>
    <trip id="1055" depart="1630.00" from="-663" to="1799" via="500"/>
    <trip id="1060" depart="1638.00" from="-663" to="1799" via="500"/>
    <trip id="1061" depart="1640.00" from="-663" to="1799" via="500"/>
    <trip id="1067" depart="1649.00" from="-663" to="1799" via="500"/>
    <trip id="1072" depart="1656.00" from="-663" to="1799" via="500"/>
    <trip id="1074" depart="1658.00" from="-663" to="1799" via="500"/>
    <trip id="1083" depart="1676.00" from="-663" to="1799" via="500"/>
    <trip id="1105" depart="1706.00" from="-663" to="1799" via="500"/>
    <trip id="1113" depart="1717.00" from="-663" to="1799" via="500"/>
    <trip id="1120" depart="1724.00" from="-663" to="1799" via="500"/>
    <trip id="1123" depart="1727.00" from="-663" to="1799" via="500"/>
    <trip id="1124" depart="1729.00" from="-663" to="1799" via="500"/>
    <trip id="1133" depart="1752.00" from="-663" to="1799" via="500"/>
    <trip id="1143" depart="1768.00" from="-663" to="1799" via="500"/>
    <trip id="1148" depart="1772.00" from="-663" to="1799" via="500"/>
    <trip id="1152" depart="1778.00" from="-663" to="1799" via="500"/>
    <trip id="1165" depart="1805.00" from="-663" to="1799" via="500"/>
    <trip id="1167" depart="1808.00" from="-663" to="1799" via="500"/>
    <trip id="1170" depart="1811.00" from="-663" to="1799" via="500"/>
    <trip id="1175" depart="1822.00" from="-663" to="1799" via="500"/>
    <trip id="1176" depart="1827.00" from="-663" to="1799" via="500"/>
    <trip id="1186" depart="1849.00" from="-663" to="1799" via="500"/>
    <trip id="1203" depart="1876.00" from="-663" to="1799" via="500"/>
    <trip id="1205" depart="1880.00" from="-663" to="1799" via="500"/>
    <trip id="1226" depart="1913.00" from="-663" to="1799" via="500"/>
    <trip id="1244" depart="1936.00" from="-663" to="1799" via="500"/>
    <trip id="1247" depart="1937.00" from="-663" to="1799" via="500"/>
    <trip id="1258" depart="1959.00" from="-663" to="1799" via="500"/>
    <trip id="1260" depart="1964.00" from="-663" to="1799" via="500"/>
    <trip id="1262" depart="1965.00" from="-663" to="1799" via="500"/>
    <trip id="1284" depart="2011.00" from="-663" to="1799" via="500"/>
    <trip id="1287" depart="2024.00" from="-663" to="1799" via="500"/>
    <trip id="1289" depart="2027.00" from="-663" to="1799" via="500"/>
    <trip id="1307" depart="2058.00" from="-663" to="1799" via="500"/>
    <trip id="1309" depart="2061.00" from="-663" to="1799" via="500"/>
    <trip id="1335" depart="2098.00" from="-663" to="1799" via="500"/>
    <trip id="1345" depart="2109.00" from="-663" to="1799" via="500"/>
    <trip id="1352" depart="2119.00" from="-663" to="1799" via="500"/>
    <trip id="1353" depart="2124.00" from="-663" to="1799" via="500"/>
    <trip id="1372" depart="2158.00" from="-663" to="1799" via="500"/>
    <trip id="1374" depart="2160.00" from="-663" to="1799" via="500"/>
    <trip id="1381" depart="2171.00" from="-663" to="1799" via="500"/>
    <trip id="1382" depart="2171.00" from="-663" to="1799" via="500"/>
    <trip id="1393" depart="2183.00" from="-663" to="1799" via="500"/>
    <trip id="1395" depart="2187.00" from="-663" to="1799" via="500"/>
    <trip id="1396" depart="2188.00" from="-663" to="1799" via="500"/>
    <trip id="1413" depart="2220.00" from="-663" to="1799" via="500"/>
    <trip id="1415" depart="2222.00" from="-663" to="1799" via="500"/>
    <trip id="1416" depart="2228.00" from="-663" to="1799" via="500"/>
    <trip id="1417" depart="2229.00" from="-663" to="1799" via="500"/>
    <trip id="1420" depart="2232.00" from="-663" to="1799" via="500"/>
    <trip id="1449" depart="2266.00" from="-663" to="1799" via="500"/>
    <trip id="1452" depart="2269.00" from="-663" to="1799" via="500"/>
    <trip id="1454" depart="2272.00" from="-663" to="1799" via="500"/>
    <trip id="1459" depart="2277.00" from="-663" to="1799" via="500"/>
    <trip id="1470" depart="2287.00" from="-663" to="1799" via="500"/>
    <trip id="1474" depart="2291.00" from="-663" to="1799" via="500"/>
    <trip id="1476" depart="2295.00" from="-663" to="1799" via="500"/>
    <trip id="1507" depart="2346.00" from="-663" to="1799" via="500"/>
    <trip id="1513" depart="2352.00" from="-663" to="1799" via="500"/>
    <trip id="1514" depart="2355.00" from="-663" to="1799" via="500"/>
    <trip id="1530" depart="2370.00" from="-663" to="1799" via="500"/>
    <trip id="1554" depart="2396.00" from="-663" to="1799" via="500"/>
    <trip id="1561" depart="2406.00" from="-663" to="1799" via="500"/>
    <trip id="1562" depart="2407.00" from="-663" to="1799" via="500"/>
    <trip id="1566" depart="2416.00" from="-663" to="1799" via="500"/>
    <trip id="1572" depart="2428.00" from="-663" to="1799" via="500"/>
    <trip id="1573" depart="2431.00" from="-663" to="1799" via="500"/>
    <trip id="1577" depart="2434.00" from="-663" to="1799" via="500"/>
    <trip id="1592" depart="2448.00" from="-663" to="1799" via="500"/>
    <trip id="1600" depart="2456.00" from="-663" to="1799" via="500"/>
    <trip id="1619" depart="2489.00" from="-663" to="1799" via="500"/>
    <trip id="1624" depart="2503.00" from="-663" to="1799" via="500"/>
    <trip id="1630" depart="2517.00" from="-663" to="1799" via="500"/>
    <trip id="1644" depart="2538.00" from="-663" to="1799" via="500"/>
    <trip id="1655" depart="2553.00" from="-663" to="1799" via="500"/>
    <trip id="1656" depart="2558.00" from="-663" to="1799" via="500"/>
    <trip id="1685" depart="2608.00" from="-663" to="1799" via="500"/>
    <trip id="1689" depart="2614.00" from="-663" to="1799" via="500"/>
    <trip id="1691" depart="2620.00" from="-663" to="1799" via="500"/>
    <trip id="1700" depart="2632.00" from="-663" to="1799" via="500"/>
    <trip id="1701" depart="2636.00" from="-663" to="1799" via="500"/>
    <trip id="1704" depart="2639.00" from="-663" to="1799" via="500"/>
    <trip id="1706" depart="2643.00" from="-663" to="1799" via="500"/>
    <trip id="1710" depart="2648.00" from="-663" to="1799" via="500"/>
    <trip id="1717" depart="2657.00" from="-663" to="1799" via="500"/>
    <trip id="1722" depart="2661.00" from="-663" to="1799" via="500"/>
    <trip id="1725" depart="2676.00" from="-663" to="1799" via="500"/>
    <trip id="1732" depart="2682.00" from="-663" to="1799" via="500"/>
    <trip id="1738" depart="2694.00" from="-663" to="1799" via="500"/>
    <trip id="1743" depart="2701.00" from="-663" to="1799" via="500"/>
    <trip id="1748" depart="2709.00" from="-663" to="1799" via="500"/>
    <trip id="1785" depart="2779.00" from="-663" to="1799" via="500"/>
    <trip id="1788" depart="2781.00" from="-663" to="1799" via="500"/>
    <trip id="1796" depart="2795.00" from="-663" to="1799" via="500"/>
    <trip id="1804" depart="2804.00" from="-663" to="1799" via="500"/>
    <trip id="1822" depart="2832.00" from="-663" to="1799" via="500"/>
    <trip id="1828" depart="2840.00" from="-663" to="1799" via="500"/>
    <trip id="1846" depart="2865.00" from="-663" to="1799" via="500"/>
    <trip id="1867" depart="2898.00" from="-663" to="1799" via="500"/>
    <trip id="1869" depart="2900.00" from="-663" to="1799" via="500"/>
    <trip id="1876" depart="2911.00" from="-663" to="1799" via="500"/>
    <trip id="1890" depart="2931.00" from="-663" to="1799" via="500"/>
    <trip id="1899" depart="2951.00" from="-663" to="1799" via="500"/>
    <trip id="1970" depart="3052.00" from="-663" to="1799" via="500"/>
    <trip id="1971" depart="3054.00" from="-663" to="1799" via="500"/>
    <trip id="1975" depart="3059.00" from="-663" to="1799" via="500"/>
    <trip id="1995" depart="3091.00" from="-663" to="1799" via="500"/>
    <trip id="1998" depart="3102.00" from="-663" to="1799" via="500"/>
    <trip id="2001" depart="3103.00" from="-663" to="1799" via="500"/>
    <trip id="2010" depart="3114.00" from="-663" to="1799" via="500"/>
    <trip id="2030" depart="3144.00" from="-663" to="1799" via="500"/>
    <trip id="2053" depart="3177.00" from="-663" to="1799" via="500"/>
    <trip id="2070" depart="3201.00" from="-663" to="1799" via="500"/>
    <trip id="2073" depart="3203.00" from="-663" to="1799" via="500"/>
    <trip id="2080" depart="3214.00" from="-663" to="1799" via="500"/>
    <trip id="2102" depart="3250.00" from="-663" to="1799" via="500"/>
    <trip id="2105" depart="3252.00" from="-663" to="1799" via="500"/>
    <trip id="2110" depart="3260.00" from="-663" to="1799" via="500"/>
    <trip id="2147" depart="3328.00" from="-663" to="1799" via="500"/>
    <trip id="2157" depart="3345.00" from="-663" to="1799" via="500"/>
    <trip id="2160" depart="3349.00" from="-663" to="1799" via="500"/>
    <trip id="2182" depart="3381.00" from="-663" to="1799" via="500"/>
    <trip id="2192" depart="3390.00" from="-663" to="1799" via="500"/>
    <trip id="2201" depart="3396.00" from="-663" to="1799" via="500"/>
    <trip id="2213" depart="3410.00" from="-663" to="1799" via="500"/>
    <trip id="2218" depart="3416.00" from="-663" to="1799" via="500"/>
    <trip id="2242" depart="3457.00" from="-663" to="1799" via="500"/>
    <trip id="2260" depart="3485.00" from="-663" to="1799" via="500"/>
    <trip id="2262" depart="3488.00" from="-663" to="1799" via="500"/>
    <trip id="2264" depart="3490.00" from="-663" to="1799" via="500"/>
    <trip id="2275" depart="3508.00" from="-663" to="1799" via="500"/>
    <trip id="2283" depart="3520.00" from="-663" to="1799" via="500"/>
    <trip id="2289" depart="3526.00" from="-663" to="1799" via="500"/>
    <trip id="2301" depart="3545.00" from="-663" to="1799" via="500"/>
    <trip id="2308" depart="3552.00" from="-663" to="1799" via="500"/>
    <trip id="2310" depart="3553.00" from="-663" to="1799" via="500"/>
    <trip id="2321" depart="3569.00" from="-663" to="1799" via="500"/>
    <trip id="2340" depart="3591.00" from="-663" to="1799" via="500"/>
</routes>
