<?xml version="1.0" encoding="UTF-8"?>

<!-- generated on 2025-03-09 19:48:56.251293 by randomTrips.py v1_19_0+1770-8bb5c24c187
<configuration>
    <net-file value="random_subnetwork_2.net.xml"/>
    <output-trip-file value="random_subnetwork_2_light.trips.xml"/>
    <fringe-factor value="100"/>
    <remove-loops value="True"/>
    <validate value="True"/>
    <period value="2.4173"/>
    <binomial value="4"/>
</configuration>
-->

<!-- generated on 2025-03-09 19:48:56 by Eclipse SUMO duarouter Version v1_19_0+1770-8bb5c24c187
<configuration xmlns:xsi="http://www.w3.org/2001/XMLSchema-instance" xsi:noNamespaceSchemaLocation="http://sumo.dlr.de/xsd/duarouterConfiguration.xsd">

    <input>
        <net-file value="random_subnetwork_2.net.xml"/>
        <route-files value="random_subnetwork_2_light.trips.xml"/>
    </input>

    <output>
        <output-file value="random_subnetwork_2_light.trips.xml.tmp"/>
        <alternatives-output value="NUL"/>
        <write-trips value="true"/>
    </output>

    <processing>
        <remove-loops value="true"/>
    </processing>

    <time>
        <begin value="0.0"/>
        <end value="3600.0"/>
    </time>

    <report>
        <no-warnings value="true"/>
        <ignore-errors value="true"/>
        <no-step-log value="true"/>
    </report>

</configuration>
-->

<routes xmlns:xsi="http://www.w3.org/2001/XMLSchema-instance" xsi:noNamespaceSchemaLocation="http://sumo.dlr.de/xsd/routes_file.xsd">
    <trip id="0" depart="0.00" from="-27" to="1222"/>
    <trip id="3" depart="3.00" from="-789" to="275"/>
    <trip id="4" depart="4.00" from="-1926" to="497"/>
    <trip id="6" depart="8.00" from="-2054" to="-1439"/>
    <trip id="7" depart="13.00" from="-27" to="1222"/>
    <trip id="9" depart="19.00" from="-270" to="678"/>
    <trip id="10" depart="20.00" from="-678" to="275"/>
    <trip id="14" depart="33.00" from="-497" to="1222"/>
    <trip id="17" depart="37.00" from="-270" to="1926"/>
    <trip id="18" depart="40.00" from="789" to="497"/>
    <trip id="19" depart="42.00" from="-270" to="678"/>
    <trip id="20" depart="46.00" from="-301" to="27"/>
    <trip id="22" depart="52.00" from="-275" to="678"/>
    <trip id="25" depart="59.00" from="-270" to="1222"/>
    <trip id="26" depart="59.00" from="-678" to="270"/>
    <trip id="27" depart="60.00" from="-1222" to="497"/>
    <trip id="28" depart="64.00" from="-678" to="497"/>
    <trip id="29" depart="66.00" from="-678" to="1926"/>
    <trip id="32" depart="77.00" from="-497" to="1926"/>
    <trip id="34" depart="84.00" from="-275" to="270"/>
    <trip id="36" depart="86.00" from="-270" to="270"/>
    <trip id="37" depart="88.00" from="-678" to="301"/>
    <trip id="39" depart="95.00" from="-27" to="1222"/>
    <trip id="40" depart="97.00" from="-270" to="27"/>
    <trip id="41" depart="99.00" from="-27" to="301"/>
    <trip id="42" depart="102.00" from="-27" to="275"/>
    <trip id="43" depart="103.00" from="-270" to="270"/>
    <trip id="45" depart="104.00" from="-270" to="1222"/>
    <trip id="46" depart="106.00" from="-1222" to="27"/>
    <trip id="48" depart="111.00" from="-27" to="275"/>
    <trip id="49" depart="112.00" from="-497" to="270"/>
    <trip id="50" depart="113.00" from="-678" to="497"/>
    <trip id="53" depart="123.00" from="1439" to="-1102"/>
    <trip id="56" depart="131.00" from="289" to="1222"/>
    <trip id="60" depart="145.00" from="-1926" to="1926"/>
    <trip id="63" depart="150.00" from="-678" to="27"/>
    <trip id="64" depart="152.00" from="-27" to="1926"/>
    <trip id="65" depart="161.00" from="303" to="678"/>
    <trip id="66" depart="171.00" from="-678" to="275"/>
    <trip id="67" depart="173.00" from="-275" to="270"/>
    <trip id="68" depart="178.00" from="-1222" to="270"/>
    <trip id="69" depart="180.00" from="-497" to="497"/>
    <trip id="70" depart="181.00" from="-678" to="1926"/>
    <trip id="72" depart="184.00" from="-678" to="497"/>
    <trip id="73" depart="190.00" from="-301" to="27"/>
    <trip id="74" depart="195.00" from="-27" to="301"/>
    <trip id="78" depart="206.00" from="1102" to="-1439"/>
    <trip id="81" depart="209.00" from="-497" to="27"/>
    <trip id="82" depart="212.00" from="-678" to="1222"/>
    <trip id="83" depart="213.00" from="-678" to="1222"/>
    <trip id="84" depart="214.00" from="1102" to="-1439"/>
    <trip id="85" depart="215.00" from="-1222" to="301"/>
    <trip id="86" depart="216.00" from="-678" to="27"/>
    <trip id="87" depart="218.00" from="-678" to="497"/>
    <trip id="89" depart="220.00" from="-1222" to="270"/>
    <trip id="90" depart="221.00" from="-27" to="270"/>
    <trip id="91" depart="222.00" from="-497" to="497"/>
    <trip id="92" depart="225.00" from="-270" to="275"/>
    <trip id="93" depart="226.00" from="1102" to="-1439"/>
    <trip id="94" depart="226.00" from="-678" to="301"/>
    <trip id="97" depart="236.00" from="-678" to="1222"/>
    <trip id="99" depart="241.00" from="-270" to="270"/>
    <trip id="100" depart="242.00" from="-27" to="1222"/>
    <trip id="102" depart="244.00" from="1102" to="-1102"/>
    <trip id="104" depart="246.00" from="-27" to="301"/>
    <trip id="106" depart="256.00" from="-270" to="1926"/>
    <trip id="107" depart="256.00" from="-275" to="1926"/>
    <trip id="108" depart="257.00" from="1102" to="-1102"/>
    <trip id="109" depart="260.00" from="-1926" to="497"/>
    <trip id="110" depart="265.00" from="-1926" to="275"/>
    <trip id="111" depart="273.00" from="1102" to="-1439"/>
    <trip id="112" depart="274.00" from="-27" to="301"/>
    <trip id="114" depart="286.00" from="-1222" to="27"/>
    <trip id="116" depart="289.00" from="-1222" to="1222"/>
    <trip id="117" depart="291.00" from="-270" to="301"/>
    <trip id="118" depart="293.00" from="-275" to="1222"/>
    <trip id="119" depart="294.00" from="1439" to="-1102"/>
    <trip id="120" depart="297.00" from="-678" to="1926"/>
    <trip id="121" depart="298.00" from="-301" to="301"/>
    <trip id="123" depart="301.00" from="-2054" to="-1102"/>
    <trip id="124" depart="307.00" from="-301" to="497"/>
    <trip id="125" depart="308.00" from="-497" to="1926"/>
    <trip id="127" depart="310.00" from="-497" to="1926"/>
    <trip id="128" depart="312.00" from="-1222" to="301"/>
    <trip id="129" depart="320.00" from="-497" to="497"/>
    <trip id="130" depart="320.00" from="-301" to="497"/>
    <trip id="131" depart="323.00" from="-301" to="1926"/>
    <trip id="132" depart="324.00" from="-27" to="789"/>
    <trip id="135" depart="334.00" from="-1222" to="275"/>
    <trip id="139" depart="346.00" from="-275" to="497"/>
    <trip id="140" depart="349.00" from="-275" to="301"/>
    <trip id="141" depart="353.00" from="-1926" to="1926"/>
    <trip id="142" depart="359.00" from="-275" to="678"/>
    <trip id="143" depart="362.00" from="1439" to="-1439"/>
    <trip id="145" depart="364.00" from="-1926" to="1222"/>
    <trip id="146" depart="377.00" from="-270" to="275"/>
    <trip id="148" depart="380.00" from="-301" to="27"/>
    <trip id="150" depart="390.00" from="-497" to="-3"/>
    <trip id="151" depart="393.00" from="-497" to="275"/>
    <trip id="152" depart="393.00" from="-1926" to="1926"/>
    <trip id="153" depart="399.00" from="-275" to="275"/>
    <trip id="155" depart="402.00" from="-275" to="301"/>
    <trip id="156" depart="403.00" from="-275" to="301"/>
    <trip id="158" depart="405.00" from="1439" to="-1102"/>
    <trip id="159" depart="410.00" from="-1222" to="1926"/>
    <trip id="160" depart="414.00" from="-2054" to="-1439"/>
    <trip id="161" depart="414.00" from="-301" to="275"/>
    <trip id="163" depart="416.00" from="-275" to="1926"/>
    <trip id="165" depart="426.00" from="-678" to="-503"/>
    <trip id="168" depart="441.00" from="-1222" to="497"/>
    <trip id="172" depart="447.00" from="-1926" to="518"/>
    <trip id="173" depart="450.00" from="-270" to="270"/>
    <trip id="176" depart="453.00" from="-1222" to="678"/>
    <trip id="178" depart="456.00" from="-1926" to="1222"/>
    <trip id="179" depart="458.00" from="-270" to="497"/>
    <trip id="180" depart="460.00" from="-27" to="678"/>
    <trip id="181" depart="462.00" from="-301" to="301"/>
    <trip id="182" depart="462.00" from="-1926" to="275"/>
    <trip id="183" depart="463.00" from="-27" to="1926"/>
    <trip id="188" depart="482.00" from="-295" to="27"/>
    <trip id="189" depart="485.00" from="-678" to="275"/>
    <trip id="190" depart="485.00" from="154" to="275"/>
    <trip id="193" depart="497.00" from="-301" to="1222"/>
    <trip id="194" depart="499.00" from="-1926" to="497"/>
    <trip id="197" depart="510.00" from="-1222" to="301"/>
    <trip id="198" depart="514.00" from="-678" to="27"/>
    <trip id="200" depart="519.00" from="-27" to="1222"/>
    <trip id="202" depart="526.00" from="-275" to="1222"/>
    <trip id="203" depart="527.00" from="-678" to="301"/>
    <trip id="204" depart="528.00" from="-295" to="1222"/>
    <trip id="205" depart="531.00" from="-1926" to="301"/>
    <trip id="208" depart="538.00" from="-497" to="303"/>
    <trip id="209" depart="539.00" from="-270" to="301"/>
    <trip id="210" depart="539.00" from="-27" to="497"/>
    <trip id="212" depart="543.00" from="-1926" to="301"/>
    <trip id="213" depart="544.00" from="-301" to="270"/>
    <trip id="215" depart="551.00" from="-1222" to="1222"/>
    <trip id="216" depart="552.00" from="-1222" to="301"/>
    <trip id="217" depart="553.00" from="-301" to="270"/>
    <trip id="218" depart="556.00" from="-497" to="301"/>
    <trip id="220" depart="561.00" from="11" to="1222"/>
    <trip id="221" depart="562.00" from="-497" to="270"/>
    <trip id="222" depart="562.00" from="-275" to="1926"/>
    <trip id="223" depart="563.00" from="-301" to="275"/>
    <trip id="225" depart="567.00" from="-270" to="27"/>
    <trip id="226" depart="569.00" from="-275" to="15"/>
    <trip id="228" depart="573.00" from="-270" to="1222"/>
    <trip id="229" depart="574.00" from="-497" to="497"/>
    <trip id="230" depart="575.00" from="-503" to="275"/>
    <trip id="239" depart="589.00" from="-1222" to="497"/>
    <trip id="242" depart="593.00" from="-301" to="1222"/>
    <trip id="244" depart="599.00" from="3" to="27"/>
    <trip id="245" depart="600.00" from="-497" to="1222"/>
    <trip id="246" depart="601.00" from="-5" to="1222"/>
    <trip id="247" depart="603.00" from="-497" to="678"/>
    <trip id="250" depart="608.00" from="-301" to="678"/>
    <trip id="252" depart="615.00" from="-301" to="678"/>
    <trip id="253" depart="618.00" from="-497" to="270"/>
    <trip id="254" depart="619.00" from="-2054" to="-1439"/>
    <trip id="255" depart="620.00" from="-270" to="301"/>
    <trip id="256" depart="621.00" from="-275" to="497"/>
    <trip id="259" depart="624.00" from="-301" to="270"/>
    <trip id="260" depart="624.00" from="1439" to="-1439"/>
    <trip id="262" depart="627.00" from="-301" to="497"/>
    <trip id="263" depart="629.00" from="-1926" to="1926"/>
    <trip id="265" depart="630.00" from="-301" to="3"/>
    <trip id="266" depart="632.00" from="-678" to="275"/>
    <trip id="267" depart="632.00" from="-27" to="27"/>
    <trip id="270" depart="645.00" from="-27" to="27"/>
    <trip id="274" depart="649.00" from="1102" to="-1439"/>
    <trip id="276" depart="657.00" from="-270" to="270"/>
    <trip id="277" depart="662.00" from="-678" to="301"/>
    <trip id="280" depart="666.00" from="-275" to="275"/>
    <trip id="281" depart="668.00" from="-262" to="275"/>
    <trip id="282" depart="673.00" from="-497" to="270"/>
    <trip id="283" depart="676.00" from="-1926" to="1222"/>
    <trip id="284" depart="677.00" from="-27" to="301"/>
    <trip id="286" depart="681.00" from="1102" to="-1439"/>
    <trip id="287" depart="684.00" from="-27" to="301"/>
    <trip id="288" depart="686.00" from="-301" to="270"/>
    <trip id="289" depart="687.00" from="-2054" to="2054"/>
    <trip id="290" depart="687.00" from="-27" to="497"/>
    <trip id="292" depart="696.00" from="-480" to="275"/>
    <trip id="294" depart="703.00" from="-275" to="1222"/>
    <trip id="295" depart="704.00" from="-497" to="497"/>
    <trip id="296" depart="705.00" from="-275" to="275"/>
    <trip id="301" depart="712.00" from="1439" to="-1439"/>
    <trip id="302" depart="714.00" from="-497" to="497"/>
    <trip id="304" depart="718.00" from="-497" to="1222"/>
    <trip id="306" depart="721.00" from="-275" to="1222"/>
    <trip id="308" depart="724.00" from="-270" to="270"/>
    <trip id="310" depart="726.00" from="-2054" to="2054"/>
    <trip id="313" depart="749.00" from="-1926" to="275"/>
    <trip id="314" depart="752.00" from="1102" to="-1439"/>
    <trip id="321" depart="774.00" from="-1222" to="275"/>
    <trip id="322" depart="778.00" from="-1222" to="301"/>
    <trip id="323" depart="780.00" from="-497" to="27"/>
    <trip id="324" depart="781.00" from="1439" to="-1439"/>
    <trip id="326" depart="787.00" from="-301" to="27"/>
    <trip id="327" depart="792.00" from="-1926" to="275"/>
    <trip id="328" depart="794.00" from="-301" to="497"/>
    <trip id="334" depart="817.00" from="-497" to="1222"/>
    <trip id="335" depart="820.00" from="-1222" to="270"/>
    <trip id="337" depart="823.00" from="-678" to="275"/>
    <trip id="338" depart="823.00" from="-275" to="678"/>
    <trip id="339" depart="829.00" from="-275" to="270"/>
    <trip id="340" depart="829.00" from="-678" to="27"/>
    <trip id="341" depart="832.00" from="-275" to="1222"/>
    <trip id="342" depart="834.00" from="-1926" to="27"/>
    <trip id="343" depart="836.00" from="-497" to="275"/>
    <trip id="344" depart="845.00" from="-1916" to="-1439"/>
    <trip id="345" depart="846.00" from="-2054" to="-1102"/>
    <trip id="346" depart="846.00" from="-270" to="678"/>
    <trip id="347" depart="850.00" from="-301" to="27"/>
    <trip id="350" depart="856.00" from="-27" to="678"/>
    <trip id="353" depart="862.00" from="-497" to="497"/>
    <trip id="355" depart="868.00" from="-275" to="270"/>
    <trip id="356" depart="871.00" from="-678" to="27"/>
    <trip id="358" depart="878.00" from="-266" to="1222"/>
    <trip id="360" depart="885.00" from="-1926" to="497"/>
    <trip id="361" depart="890.00" from="-1926" to="1222"/>
    <trip id="362" depart="893.00" from="-678" to="275"/>
    <trip id="365" depart="895.00" from="-270" to="301"/>
    <trip id="366" depart="895.00" from="-2054" to="-1439"/>
    <trip id="367" depart="897.00" from="-497" to="497"/>
    <trip id="370" depart="904.00" from="-270" to="1926"/>
    <trip id="372" depart="911.00" from="-1222" to="27"/>
    <trip id="373" depart="912.00" from="-262" to="275"/>
    <trip id="375" depart="918.00" from="-275" to="301"/>
    <trip id="377" depart="924.00" from="-1222" to="301"/>
    <trip id="379" depart="926.00" from="-497" to="275"/>
    <trip id="380" depart="933.00" from="-1926" to="1926"/>
    <trip id="383" depart="937.00" from="1102" to="-1439"/>
    <trip id="384" depart="938.00" from="-301" to="497"/>
    <trip id="387" depart="943.00" from="-1222" to="1926"/>
    <trip id="388" depart="944.00" from="-678" to="27"/>
    <trip id="391" depart="958.00" from="-270" to="678"/>
    <trip id="392" depart="961.00" from="-1222" to="301"/>
    <trip id="397" depart="967.00" from="-275" to="301"/>
    <trip id="398" depart="970.00" from="-678" to="1926"/>
    <trip id="400" depart="971.00" from="-27" to="678"/>
    <trip id="405" depart="977.00" from="-301" to="275"/>
    <trip id="409" depart="981.00" from="-27" to="497"/>
    <trip id="411" depart="986.00" from="-301" to="1222"/>
    <trip id="412" depart="987.00" from="-270" to="678"/>
    <trip id="416" depart="1008.00" from="-5" to="27"/>
    <trip id="420" depart="1025.00" from="-301" to="1222"/>
    <trip id="421" depart="1027.00" from="-1926" to="275"/>
    <trip id="424" depart="1030.00" from="-27" to="1926"/>
    <trip id="425" depart="1031.00" from="-270" to="27"/>
    <trip id="426" depart="1039.00" from="-1222" to="270"/>
    <trip id="428" depart="1042.00" from="-497" to="1926"/>
    <trip id="429" depart="1043.00" from="-1926" to="1926"/>
    <trip id="430" depart="1050.00" from="154" to="270"/>
    <trip id="431" depart="1052.00" from="-270" to="27"/>
    <trip id="432" depart="1055.00" from="-275" to="27"/>
    <trip id="435" depart="1063.00" from="-301" to="27"/>
    <trip id="436" depart="1065.00" from="-301" to="1926"/>
    <trip id="438" depart="1075.00" from="-275" to="1926"/>
    <trip id="441" depart="1083.00" from="-1926" to="301"/>
    <trip id="444" depart="1089.00" from="-1222" to="678"/>
    <trip id="445" depart="1090.00" from="-497" to="497"/>
    <trip id="446" depart="1095.00" from="-1222" to="275"/>
    <trip id="448" depart="1104.00" from="1102" to="-1439"/>
    <trip id="449" depart="1105.00" from="-497" to="301"/>
    <trip id="450" depart="1106.00" from="-27" to="301"/>
    <trip id="453" depart="1109.00" from="289" to="301"/>
    <trip id="454" depart="1110.00" from="-275" to="497"/>
    <trip id="456" depart="1114.00" from="-1926" to="678"/>
    <trip id="457" depart="1120.00" from="1439" to="2054"/>
    <trip id="464" depart="1137.00" from="-1222" to="270"/>
    <trip id="466" depart="1144.00" from="295" to="678"/>
    <trip id="467" depart="1145.00" from="-275" to="301"/>
    <trip id="468" depart="1145.00" from="-270" to="515"/>
    <trip id="469" depart="1147.00" from="-497" to="301"/>
    <trip id="470" depart="1148.00" from="-301" to="1926"/>
    <trip id="471" depart="1149.00" from="-1222" to="301"/>
    <trip id="472" depart="1150.00" from="-1926" to="301"/>
    <trip id="473" depart="1152.00" from="-1926" to="275"/>
    <trip id="475" depart="1153.00" from="-27" to="301"/>
    <trip id="476" depart="1160.00" from="-1926" to="497"/>
    <trip id="478" depart="1162.00" from="-497" to="497"/>
    <trip id="480" depart="1166.00" from="-2054" to="-1439"/>
    <trip id="481" depart="1166.00" from="-270" to="301"/>
    <trip id="483" depart="1171.00" from="-678" to="678"/>
    <trip id="484" depart="1174.00" from="-678" to="497"/>
    <trip id="485" depart="1178.00" from="-1926" to="497"/>
    <trip id="487" depart="1185.00" from="1439" to="-1102"/>
    <trip id="488" depart="1186.00" from="-275" to="27"/>
    <trip id="489" depart="1187.00" from="-678" to="678"/>
    <trip id="490" depart="1188.00" from="-275" to="1926"/>
    <trip id="491" depart="1189.00" from="-275" to="301"/>
    <trip id="493" depart="1191.00" from="-270" to="1222"/>
    <trip id="496" depart="1195.00" from="-497" to="1222"/>
    <trip id="497" depart="1199.00" from="-27" to="27"/>
    <trip id="498" depart="1202.00" from="1102" to="2054"/>
    <trip id="503" depart="1215.00" from="-27" to="1926"/>
    <trip id="504" depart="1217.00" from="-678" to="678"/>
    <trip id="505" depart="1223.00" from="-1222" to="275"/>
    <trip id="507" depart="1224.00" from="-275" to="1222"/>
    <trip id="511" depart="1231.00" from="-270" to="678"/>
    <trip id="513" depart="1235.00" from="-1222" to="1222"/>
    <trip id="514" depart="1238.00" from="-678" to="270"/>
    <trip id="515" depart="1241.00" from="-27" to="497"/>
    <trip id="516" depart="1244.00" from="-678" to="27"/>
    <trip id="517" depart="1246.00" from="-301" to="497"/>
    <trip id="518" depart="1246.00" from="-275" to="1926"/>
    <trip id="519" depart="1247.00" from="-1926" to="1222"/>
    <trip id="522" depart="1254.00" from="-497" to="301"/>
    <trip id="523" depart="1254.00" from="-678" to="301"/>
    <trip id="524" depart="1254.00" from="-1926" to="301"/>
    <trip id="525" depart="1255.00" from="-1926" to="1222"/>
    <trip id="526" depart="1255.00" from="-497" to="301"/>
    <trip id="536" depart="1278.00" from="-1222" to="301"/>
    <trip id="537" depart="1281.00" from="-270" to="678"/>
    <trip id="538" depart="1282.00" from="-301" to="497"/>
    <trip id="539" depart="1288.00" from="-1222" to="497"/>
    <trip id="541" depart="1289.00" from="-27" to="1926"/>
    <trip id="542" depart="1290.00" from="-27" to="1926"/>
    <trip id="543" depart="1291.00" from="-27" to="-21"/>
    <trip id="544" depart="1294.00" from="-497" to="1926"/>
    <trip id="546" depart="1298.00" from="1102" to="-1439"/>
    <trip id="547" depart="1298.00" from="-678" to="27"/>
    <trip id="548" depart="1302.00" from="-497" to="497"/>
    <trip id="549" depart="1307.00" from="-2054" to="2054"/>
    <trip id="551" depart="1313.00" from="1102" to="-1102"/>
    <trip id="556" depart="1335.00" from="-1222" to="275"/>
    <trip id="557" depart="1337.00" from="-1926" to="27"/>
    <trip id="558" depart="1345.00" from="-270" to="678"/>
    <trip id="559" depart="1352.00" from="-1926" to="1926"/>
    <trip id="560" depart="1354.00" from="-1222" to="1926"/>
    <trip id="562" depart="1360.00" from="-1926" to="497"/>
    <trip id="563" depart="1365.00" from="-1926" to="1222"/>
    <trip id="565" depart="1366.00" from="-27" to="275"/>
    <trip id="567" depart="1370.00" from="-678" to="275"/>
    <trip id="568" depart="1371.00" from="-497" to="275"/>
    <trip id="571" depart="1375.00" from="-497" to="1926"/>
    <trip id="572" depart="1375.00" from="-1222" to="678"/>
    <trip id="573" depart="1377.00" from="1102" to="-1439"/>
    <trip id="574" depart="1383.00" from="-27" to="-266"/>
    <trip id="576" depart="1388.00" from="-497" to="270"/>
    <trip id="582" depart="1403.00" from="-1222" to="270"/>
    <trip id="583" depart="1408.00" from="1102" to="2054"/>
    <trip id="584" depart="1409.00" from="-27" to="-518"/>
    <trip id="585" depart="1416.00" from="-270" to="678"/>
    <trip id="586" depart="1417.00" from="-1222" to="497"/>
    <trip id="589" depart="1424.00" from="-1926" to="270"/>
    <trip id="590" depart="1426.00" from="-497" to="1926"/>
    <trip id="591" depart="1428.00" from="-270" to="301"/>
    <trip id="593" depart="1432.00" from="-27" to="678"/>
    <trip id="594" depart="1433.00" from="-678" to="275"/>
    <trip id="595" depart="1434.00" from="-497" to="275"/>
    <trip id="596" depart="1436.00" from="-27" to="27"/>
    <trip id="597" depart="1440.00" from="-27" to="275"/>
    <trip id="598" depart="1441.00" from="-301" to="27"/>
    <trip id="599" depart="1442.00" from="-678" to="270"/>
    <trip id="600" depart="1443.00" from="-270" to="270"/>
    <trip id="602" depart="1450.00" from="-497" to="497"/>
    <trip id="603" depart="1450.00" from="-1222" to="497"/>
    <trip id="604" depart="1458.00" from="-1926" to="1926"/>
    <trip id="606" depart="1471.00" from="-301" to="-5"/>
    <trip id="607" depart="1472.00" from="-678" to="1222"/>
    <trip id="608" depart="1474.00" from="1102" to="-1102"/>
    <trip id="613" depart="1484.00" from="-497" to="1222"/>
    <trip id="614" depart="1486.00" from="-275" to="497"/>
    <trip id="616" depart="1489.00" from="-678" to="270"/>
    <trip id="617" depart="1494.00" from="-497" to="275"/>
    <trip id="618" depart="1494.00" from="-275" to="497"/>
    <trip id="619" depart="1497.00" from="-1222" to="497"/>
    <trip id="620" depart="1499.00" from="-275" to="678"/>
    <trip id="621" depart="1500.00" from="-27" to="678"/>
    <trip id="622" depart="1500.00" from="-301" to="1926"/>
    <trip id="624" depart="1510.00" from="1439" to="2054"/>
    <trip id="625" depart="1513.00" from="-2054" to="-1102"/>
    <trip id="626" depart="1513.00" from="-678" to="678"/>
    <trip id="627" depart="1514.00" from="-2054" to="-1439"/>
    <trip id="628" depart="1514.00" from="-275" to="301"/>
    <trip id="629" depart="1516.00" from="-27" to="301"/>
    <trip id="631" depart="1519.00" from="-1926" to="678"/>
    <trip id="632" depart="1520.00" from="-497" to="270"/>
    <trip id="633" depart="1521.00" from="-678" to="1222"/>
    <trip id="634" depart="1521.00" from="-270" to="301"/>
    <trip id="637" depart="1529.00" from="-301" to="275"/>
    <trip id="638" depart="1529.00" from="-275" to="497"/>
    <trip id="639" depart="1534.00" from="-2054" to="-1102"/>
    <trip id="641" depart="1539.00" from="-1222" to="1222"/>
    <trip id="644" depart="1544.00" from="-1926" to="678"/>
    <trip id="645" depart="1546.00" from="-301" to="-493"/>
    <trip id="646" depart="1547.00" from="-678" to="497"/>
    <trip id="647" depart="1548.00" from="-275" to="275"/>
    <trip id="648" depart="1548.00" from="-275" to="301"/>
    <trip id="650" depart="1554.00" from="-270" to="1926"/>
    <trip id="653" depart="1562.00" from="-27" to="497"/>
    <trip id="655" depart="1572.00" from="-678" to="678"/>
    <trip id="656" depart="1576.00" from="-1926" to="270"/>
    <trip id="657" depart="1577.00" from="-497" to="27"/>
    <trip id="658" depart="1577.00" from="1439" to="-1573"/>
    <trip id="659" depart="1578.00" from="-1222" to="27"/>
    <trip id="662" depart="1593.00" from="-1926" to="301"/>
    <trip id="663" depart="1594.00" from="-497" to="301"/>
    <trip id="664" depart="1596.00" from="-1926" to="678"/>
    <trip id="665" depart="1597.00" from="-301" to="1222"/>
    <trip id="666" depart="1598.00" from="-1926" to="1926"/>
    <trip id="667" depart="1599.00" from="-678" to="275"/>
    <trip id="668" depart="1600.00" from="-497" to="1222"/>
    <trip id="669" depart="1602.00" from="-1222" to="301"/>
    <trip id="670" depart="1603.00" from="-270" to="678"/>
    <trip id="673" depart="1611.00" from="-301" to="678"/>
    <trip id="674" depart="1619.00" from="-270" to="1926"/>
    <trip id="677" depart="1625.00" from="1102" to="-1102"/>
    <trip id="678" depart="1627.00" from="-301" to="497"/>
    <trip id="679" depart="1627.00" from="-678" to="1926"/>
    <trip id="680" depart="1630.00" from="1439" to="2054"/>
    <trip id="681" depart="1632.00" from="-270" to="497"/>
    <trip id="682" depart="1635.00" from="-1926" to="27"/>
    <trip id="683" depart="1635.00" from="-275" to="275"/>
    <trip id="684" depart="1638.00" from="1439" to="2054"/>
    <trip id="686" depart="1644.00" from="-678" to="275"/>
    <trip id="687" depart="1649.00" from="-497" to="301"/>
    <trip id="688" depart="1651.00" from="-1222" to="275"/>
    <trip id="690" depart="1658.00" from="-1222" to="301"/>
    <trip id="691" depart="1658.00" from="-301" to="678"/>
    <trip id="693" depart="1662.00" from="-27" to="1926"/>
    <trip id="694" depart="1663.00" from="-275" to="275"/>
    <trip id="696" depart="1669.00" from="-270" to="678"/>
    <trip id="697" depart="1676.00" from="-270" to="275"/>
    <trip id="698" depart="1679.00" from="-497" to="497"/>
    <trip id="699" depart="1683.00" from="-15" to="301"/>
    <trip id="700" depart="1685.00" from="-1222" to="27"/>
    <trip id="701" depart="1695.00" from="1102" to="-1916"/>
    <trip id="702" depart="1703.00" from="-678" to="270"/>
    <trip id="706" depart="1711.00" from="-275" to="275"/>
    <trip id="707" depart="1711.00" from="-301" to="270"/>
    <trip id="708" depart="1713.00" from="-1222" to="5"/>
    <trip id="709" depart="1714.00" from="-301" to="27"/>
    <trip id="711" depart="1721.00" from="-27" to="678"/>
    <trip id="713" depart="1727.00" from="-2054" to="2054"/>
    <trip id="714" depart="1727.00" from="-2054" to="2054"/>
    <trip id="715" depart="1728.00" from="-678" to="678"/>
    <trip id="717" depart="1732.00" from="-497" to="1926"/>
    <trip id="718" depart="1733.00" from="-270" to="678"/>
    <trip id="720" depart="1741.00" from="-678" to="678"/>
    <trip id="721" depart="1745.00" from="-1222" to="301"/>
    <trip id="722" depart="1746.00" from="-678" to="270"/>
    <trip id="724" depart="1759.00" from="-275" to="270"/>
    <trip id="727" depart="1767.00" from="-270" to="301"/>
    <trip id="728" depart="1772.00" from="-1926" to="27"/>
    <trip id="729" depart="1780.00" from="295" to="678"/>
    <trip id="733" depart="1786.00" from="-1222" to="270"/>
    <trip id="734" depart="1791.00" from="-301" to="1926"/>
    <trip id="736" depart="1795.00" from="-270" to="678"/>
    <trip id="737" depart="1796.00" from="-301" to="275"/>
    <trip id="738" depart="1796.00" from="-301" to="301"/>
    <trip id="739" depart="1803.00" from="-2054" to="-1102"/>
    <trip id="740" depart="1805.00" from="-27" to="270"/>
    <trip id="741" depart="1806.00" from="-497" to="27"/>
    <trip id="744" depart="1815.00" from="-1926" to="154"/>
    <trip id="745" depart="1816.00" from="-1222" to="1222"/>
    <trip id="746" depart="1817.00" from="-275" to="275"/>
    <trip id="748" depart="1818.00" from="-2054" to="-1102"/>
    <trip id="750" depart="1822.00" from="-497" to="270"/>
    <trip id="751" depart="1823.00" from="-27" to="27"/>
    <trip id="754" depart="1832.00" from="-1222" to="678"/>
    <trip id="755" depart="1834.00" from="-301" to="678"/>
    <trip id="756" depart="1834.00" from="-493" to="-262"/>
    <trip id="758" depart="1841.00" from="-27" to="497"/>
    <trip id="759" depart="1844.00" from="-1926" to="678"/>
    <trip id="763" depart="1846.00" from="-301" to="301"/>
    <trip id="764" depart="1849.00" from="-678" to="27"/>
    <trip id="766" depart="1857.00" from="-301" to="497"/>
    <trip id="767" depart="1857.00" from="-27" to="27"/>
    <trip id="768" depart="1858.00" from="-301" to="301"/>
    <trip id="769" depart="1859.00" from="262" to="678"/>
    <trip id="770" depart="1860.00" from="-27" to="678"/>
    <trip id="771" depart="1860.00" from="-27" to="15"/>
    <trip id="772" depart="1862.00" from="-270" to="301"/>
    <trip id="773" depart="1862.00" from="1102" to="-1439"/>
    <trip id="774" depart="1864.00" from="-678" to="497"/>
    <trip id="775" depart="1869.00" from="-1926" to="270"/>
    <trip id="776" depart="1871.00" from="-1926" to="1926"/>
    <trip id="777" depart="1873.00" from="-1926" to="301"/>
    <trip id="778" depart="1875.00" from="1102" to="2054"/>
    <trip id="780" depart="1880.00" from="-270" to="-258"/>
    <trip id="781" depart="1880.00" from="-275" to="275"/>
    <trip id="782" depart="1881.00" from="-678" to="678"/>
    <trip id="783" depart="1884.00" from="-1926" to="27"/>