<?xml version="1.0" encoding="UTF-8"?>

<!-- generated on 2025-03-10 17:27:49 by Eclipse SUMO netedit Version 1.20.0
<configuration xmlns:xsi="http://www.w3.org/2001/XMLSchema-instance" xsi:noNamespaceSchemaLocation="http://sumo.dlr.de/xsd/neteditConfiguration.xsd">

    <input>
        <sumo-net-file value="/Volumes/Crucial_X6/repos/pytsc/pytsc/scenarios/sumo/random_grid_subnetworks/random_subnetwork_1.net.xml"/>
    </input>

    <output>
        <output-file value="/Volumes/Crucial_X6/repos/pytsc/pytsc/scenarios/sumo/random_grid_subnetworks/random_subnetwork_1.net.xml"/>
    </output>

    <processing>
        <geometry.min-radius.fix.railways value="false"/>
        <geometry.max-grade.fix value="false"/>
        <offset.disable-normalization value="true"/>
        <lefthand value="0"/>
    </processing>

    <junctions>
        <no-turnarounds value="true"/>
        <junctions.corner-detail value="5"/>
        <junctions.limit-turn-speed value="5.50"/>
        <rectangular-lane-cut value="0"/>
    </junctions>

    <pedestrian>
        <walkingareas value="0"/>
    </pedestrian>

</configuration>
-->

<net version="1.20" junctionCornerDetail="5" limitTurnSpeed="5.50" xmlns:xsi="http://www.w3.org/2001/XMLSchema-instance" xsi:noNamespaceSchemaLocation="http://sumo.dlr.de/xsd/net_file.xsd">

    <location netOffset="2000.00,1800.00" convBoundary="1000.00,1600.00,2000.00,3000.00" origBoundary="-2000.00,-1800.00,800.00,1200.00" projParameter="!"/>

    <edge id=":1068_0" function="internal">
        <lane id=":1068_0_0" index="0" speed="8.96" length="18.06" shape="1406.40,3004.80 1401.50,3004.10 1398.00,3002.00 1395.90,2998.50 1395.20,2993.60"/>
        <lane id=":1068_0_1" index="1" speed="7.66" length="12.90" shape="1406.40,3001.60 1402.90,3001.10 1400.40,2999.60 1398.90,2997.10 1398.40,2993.60"/>
    </edge>
    <edge id=":1068_2" function="internal">
        <lane id=":1068_2_0" index="0" speed="3.90" length="2.58" shape="1404.80,2993.60 1404.90,2994.30 1405.20,2994.80 1405.70,2995.10 1406.40,2995.20"/>
        <lane id=":1068_2_1" index="1" speed="6.08" length="7.74" shape="1401.60,2993.60 1401.90,2995.70 1402.80,2997.20 1404.30,2998.10 1406.40,2998.40"/>
    </edge>
    <edge id=":1438_0" function="internal">
        <lane id=":1438_0_0" index="0" speed="8.96" length="18.06" shape="1206.40,2004.80 1201.50,2004.10 1198.00,2002.00 1195.90,1998.50 1195.20,1993.60"/>
        <lane id=":1438_0_1" index="1" speed="7.66" length="12.90" shape="1206.40,2001.60 1202.90,2001.10 1200.40,1999.60 1198.90,1997.10 1198.40,1993.60"/>
    </edge>
    <edge id=":1438_2" function="internal">
        <lane id=":1438_2_0" index="0" speed="3.90" length="2.58" shape="1204.80,1993.60 1204.90,1994.30 1205.20,1994.80 1205.70,1995.10 1206.40,1995.20"/>
        <lane id=":1438_2_1" index="1" speed="6.08" length="7.74" shape="1201.60,1993.60 1201.90,1995.70 1202.80,1997.20 1204.30,1998.10 1206.40,1998.40"/>
    </edge>
    <edge id=":1442_0" function="internal">
        <lane id=":1442_0_0" index="0" speed="3.90" length="2.58" shape="1595.20,2006.40 1595.10,2005.70 1594.80,2005.20 1594.30,2004.90 1593.60,2004.80"/>
        <lane id=":1442_0_1" index="1" speed="6.08" length="7.74" shape="1598.40,2006.40 1598.10,2004.30 1597.20,2002.80 1595.70,2001.90 1593.60,2001.60"/>
    </edge>
    <edge id=":1442_2" function="internal">
        <lane id=":1442_2_0" index="0" speed="8.96" length="18.06" shape="1593.60,1995.20 1598.50,1995.90 1602.00,1998.00 1604.10,2001.50 1604.80,2006.40"/>
        <lane id=":1442_2_1" index="1" speed="7.66" length="12.90" shape="1593.60,1998.40 1597.10,1998.90 1599.60,2000.40 1601.10,2002.90 1601.60,2006.40"/>
    </edge>
    <edge id=":1447_0" function="internal">
        <lane id=":1447_0_0" index="0" speed="8.96" length="18.06" shape="1604.80,2193.60 1604.10,2198.50 1602.00,2202.00 1598.50,2204.10 1593.60,2204.80"/>
        <lane id=":1447_0_1" index="1" speed="7.66" length="12.90" shape="1601.60,2193.60 1601.10,2197.10 1599.60,2199.60 1597.10,2201.10 1593.60,2201.60"/>
    </edge>
    <edge id=":1447_2" function="internal">
        <lane id=":1447_2_0" index="0" speed="3.90" length="2.58" shape="1593.60,2195.20 1594.30,2195.10 1594.80,2194.80 1595.10,2194.30 1595.20,2193.60"/>
        <lane id=":1447_2_1" index="1" speed="6.08" length="7.74" shape="1593.60,2198.40 1595.70,2198.10 1597.20,2197.20 1598.10,2195.70 1598.40,2193.60"/>
    </edge>
    <edge id=":269_0" function="internal">
        <lane id=":269_0_0" index="0" speed="6.51" length="9.03" shape="1795.20,2410.40 1794.85,2407.95 1793.80,2406.20 1792.05,2405.15 1789.60,2404.80"/>
    </edge>
    <edge id=":269_1" function="internal">
        <lane id=":269_1_0" index="0" speed="13.89" length="20.80" shape="1795.20,2410.40 1795.20,2389.60"/>
        <lane id=":269_1_1" index="1" speed="13.89" length="20.80" shape="1798.40,2410.40 1798.40,2389.60"/>
    </edge>
    <edge id=":269_3" function="internal">
        <lane id=":269_3_0" index="0" speed="9.26" length="5.01" shape="1798.40,2410.40 1799.11,2405.44"/>
    </edge>
    <edge id=":269_16" function="internal">
        <lane id=":269_16_0" index="0" speed="9.26" length="14.34" shape="1799.11,2405.44 1799.15,2405.15 1801.40,2401.40 1805.15,2399.15 1810.40,2398.40"/>
    </edge>
    <edge id=":269_4" function="internal">
        <lane id=":269_4_0" index="0" speed="6.51" length="9.03" shape="1810.40,2404.80 1807.95,2405.15 1806.20,2406.20 1805.15,2407.95 1804.80,2410.40"/>
    </edge>
    <edge id=":269_5" function="internal">
        <lane id=":269_5_0" index="0" speed="13.89" length="20.80" shape="1810.40,2404.80 1789.60,2404.80"/>
        <lane id=":269_5_1" index="1" speed="13.89" length="20.80" shape="1810.40,2401.60 1789.60,2401.60"/>
    </edge>
    <edge id=":269_7" function="internal">
        <lane id=":269_7_0" index="0" speed="9.26" length="5.01" shape="1810.40,2401.60 1805.44,2400.89"/>
    </edge>
    <edge id=":269_17" function="internal">
        <lane id=":269_17_0" index="0" speed="9.26" length="14.34" shape="1805.44,2400.89 1805.15,2400.85 1801.40,2398.60 1799.15,2394.85 1798.40,2389.60"/>
    </edge>
    <edge id=":269_8" function="internal">
        <lane id=":269_8_0" index="0" speed="6.51" length="9.03" shape="1804.80,2389.60 1805.15,2392.05 1806.20,2393.80 1807.95,2394.85 1810.40,2395.20"/>
    </edge>
    <edge id=":269_9" function="internal">
        <lane id=":269_9_0" index="0" speed="13.89" length="20.80" shape="1804.80,2389.60 1804.80,2410.40"/>
        <lane id=":269_9_1" index="1" speed="13.89" length="20.80" shape="1801.60,2389.60 1801.60,2410.40"/>
    </edge>
    <edge id=":269_11" function="internal">
        <lane id=":269_11_0" index="0" speed="9.26" length="5.01" shape="1801.60,2389.60 1800.89,2394.56"/>
    </edge>
    <edge id=":269_18" function="internal">
        <lane id=":269_18_0" index="0" speed="9.26" length="14.34" shape="1800.89,2394.56 1800.85,2394.85 1798.60,2398.60 1794.85,2400.85 1789.60,2401.60"/>
    </edge>
    <edge id=":269_12" function="internal">
        <lane id=":269_12_0" index="0" speed="6.51" length="9.03" shape="1789.60,2395.20 1792.05,2394.85 1793.80,2393.80 1794.85,2392.05 1795.20,2389.60"/>
    </edge>
    <edge id=":269_13" function="internal">
        <lane id=":269_13_0" index="0" speed="13.89" length="20.80" shape="1789.60,2395.20 1810.40,2395.20"/>
        <lane id=":269_13_1" index="1" speed="13.89" length="20.80" shape="1789.60,2398.40 1810.40,2398.40"/>
    </edge>
    <edge id=":269_15" function="internal">
        <lane id=":269_15_0" index="0" speed="9.26" length="5.01" shape="1789.60,2398.40 1794.56,2399.11"/>
    </edge>
    <edge id=":269_19" function="internal">
        <lane id=":269_19_0" index="0" speed="9.26" length="14.34" shape="1794.56,2399.11 1794.85,2399.15 1798.60,2401.40 1800.85,2405.15 1801.60,2410.40"/>
    </edge>
    <edge id=":304_0" function="internal">
        <lane id=":304_0_0" index="0" speed="8.96" length="18.06" shape="1804.80,2793.60 1804.10,2798.50 1802.00,2802.00 1798.50,2804.10 1793.60,2804.80"/>
        <lane id=":304_0_1" index="1" speed="7.66" length="12.90" shape="1801.60,2793.60 1801.10,2797.10 1799.60,2799.60 1797.10,2801.10 1793.60,2801.60"/>
    </edge>
    <edge id=":304_2" function="internal">
        <lane id=":304_2_0" index="0" speed="3.90" length="2.58" shape="1793.60,2795.20 1794.30,2795.10 1794.80,2794.80 1795.10,2794.30 1795.20,2793.60"/>
        <lane id=":304_2_1" index="1" speed="6.08" length="7.74" shape="1793.60,2798.40 1795.70,2798.10 1797.20,2797.20 1798.10,2795.70 1798.40,2793.60"/>
    </edge>
    <edge id=":306_0" function="internal">
        <lane id=":306_0_0" index="0" speed="6.51" length="9.03" shape="1395.20,2410.40 1394.85,2407.95 1393.80,2406.20 1392.05,2405.15 1389.60,2404.80"/>
    </edge>
    <edge id=":306_1" function="internal">
        <lane id=":306_1_0" index="0" speed="13.89" length="20.80" shape="1395.20,2410.40 1395.20,2389.60"/>
        <lane id=":306_1_1" index="1" speed="13.89" length="20.80" shape="1398.40,2410.40 1398.40,2389.60"/>
    </edge>
    <edge id=":306_3" function="internal">
        <lane id=":306_3_0" index="0" speed="9.26" length="5.01" shape="1398.40,2410.40 1399.11,2405.44"/>
    </edge>
    <edge id=":306_16" function="internal">
        <lane id=":306_16_0" index="0" speed="9.26" length="14.34" shape="1399.11,2405.44 1399.15,2405.15 1401.40,2401.40 1405.15,2399.15 1410.40,2398.40"/>
    </edge>
    <edge id=":306_4" function="internal">
        <lane id=":306_4_0" index="0" speed="6.51" length="9.03" shape="1410.40,2404.80 1407.95,2405.15 1406.20,2406.20 1405.15,2407.95 1404.80,2410.40"/>
    </edge>
    <edge id=":306_5" function="internal">
        <lane id=":306_5_0" index="0" speed="13.89" length="20.80" shape="1410.40,2404.80 1389.60,2404.80"/>
        <lane id=":306_5_1" index="1" speed="13.89" length="20.80" shape="1410.40,2401.60 1389.60,2401.60"/>
    </edge>
    <edge id=":306_7" function="internal">
        <lane id=":306_7_0" index="0" speed="9.26" length="5.01" shape="1410.40,2401.60 1405.44,2400.89"/>
    </edge>
    <edge id=":306_17" function="internal">
        <lane id=":306_17_0" index="0" speed="9.26" length="14.34" shape="1405.44,2400.89 1405.15,2400.85 1401.40,2398.60 1399.15,2394.85 1398.40,2389.60"/>
    </edge>
    <edge id=":306_8" function="internal">
        <lane id=":306_8_0" index="0" speed="6.51" length="9.03" shape="1404.80,2389.60 1405.15,2392.05 1406.20,2393.80 1407.95,2394.85 1410.40,2395.20"/>
    </edge>
    <edge id=":306_9" function="internal">
        <lane id=":306_9_0" index="0" speed="13.89" length="20.80" shape="1404.80,2389.60 1404.80,2410.40"/>
        <lane id=":306_9_1" index="1" speed="13.89" length="20.80" shape="1401.60,2389.60 1401.60,2410.40"/>
    </edge>
    <edge id=":306_11" function="internal">
        <lane id=":306_11_0" index="0" speed="9.26" length="5.01" shape="1401.60,2389.60 1400.89,2394.56"/>
    </edge>
    <edge id=":306_18" function="internal">
        <lane id=":306_18_0" index="0" speed="9.26" length="14.34" shape="1400.89,2394.56 1400.85,2394.85 1398.60,2398.60 1394.85,2400.85 1389.60,2401.60"/>
    </edge>
    <edge id=":306_12" function="internal">
        <lane id=":306_12_0" index="0" speed="6.51" length="9.03" shape="1389.60,2395.20 1392.05,2394.85 1393.80,2393.80 1394.85,2392.05 1395.20,2389.60"/>
    </edge>
    <edge id=":306_13" function="internal">
        <lane id=":306_13_0" index="0" speed="13.89" length="20.80" shape="1389.60,2395.20 1410.40,2395.20"/>
        <lane id=":306_13_1" index="1" speed="13.89" length="20.80" shape="1389.60,2398.40 1410.40,2398.40"/>
    </edge>
    <edge id=":306_15" function="internal">
        <lane id=":306_15_0" index="0" speed="9.26" length="5.01" shape="1389.60,2398.40 1394.56,2399.11"/>
    </edge>
    <edge id=":306_19" function="internal">
        <lane id=":306_19_0" index="0" speed="9.26" length="14.34" shape="1394.56,2399.11 1394.85,2399.15 1398.60,2401.40 1400.85,2405.15 1401.60,2410.40"/>
    </edge>
    <edge id=":467_0" function="internal">
        <lane id=":467_0_0" index="0" speed="13.89" length="20.80" shape="1395.20,2610.40 1395.20,2589.60"/>
        <lane id=":467_0_1" index="1" speed="13.89" length="20.80" shape="1398.40,2610.40 1398.40,2589.60"/>
    </edge>
    <edge id=":467_2" function="internal">
        <lane id=":467_2_0" index="0" speed="9.26" length="5.01" shape="1398.40,2610.40 1399.11,2605.44"/>
    </edge>
    <edge id=":467_9" function="internal">
        <lane id=":467_9_0" index="0" speed="9.26" length="14.34" shape="1399.11,2605.44 1399.15,2605.15 1401.40,2601.40 1405.15,2599.15 1410.40,2598.40"/>
    </edge>
    <edge id=":467_3" function="internal">
        <lane id=":467_3_0" index="0" speed="6.51" length="9.03" shape="1410.40,2604.80 1407.95,2605.15 1406.20,2606.20 1405.15,2607.95 1404.80,2610.40"/>
        <lane id=":467_3_1" index="1" speed="8.00" length="14.19" shape="1410.40,2601.60 1406.55,2602.15 1403.80,2603.80 1402.15,2606.55 1401.60,2610.40"/>
    </edge>
    <edge id=":467_5" function="internal">
        <lane id=":467_5_0" index="0" speed="9.26" length="19.35" shape="1410.40,2601.60 1405.15,2600.85 1401.40,2598.60 1399.15,2594.85 1398.40,2589.60"/>
    </edge>
    <edge id=":467_6" function="internal">
        <lane id=":467_6_0" index="0" speed="6.51" length="9.03" shape="1404.80,2589.60 1405.15,2592.05 1406.20,2593.80 1407.95,2594.85 1410.40,2595.20"/>
    </edge>
    <edge id=":467_7" function="internal">
        <lane id=":467_7_0" index="0" speed="13.89" length="20.80" shape="1404.80,2589.60 1404.80,2610.40"/>
        <lane id=":467_7_1" index="1" speed="13.89" length="20.80" shape="1401.60,2589.60 1401.60,2610.40"/>
    </edge>
    <edge id=":469_0" function="internal">
        <lane id=":469_0_0" index="0" speed="13.89" length="20.80" shape="1395.20,2210.40 1395.20,2189.60"/>
        <lane id=":469_0_1" index="1" speed="13.89" length="20.80" shape="1398.40,2210.40 1398.40,2189.60"/>
    </edge>
    <edge id=":469_2" function="internal">
        <lane id=":469_2_0" index="0" speed="9.26" length="5.01" shape="1398.40,2210.40 1399.11,2205.44"/>
    </edge>
    <edge id=":469_9" function="internal">
        <lane id=":469_9_0" index="0" speed="9.26" length="14.34" shape="1399.11,2205.44 1399.15,2205.15 1401.40,2201.40 1405.15,2199.15 1410.40,2198.40"/>
    </edge>
    <edge id=":469_3" function="internal">
        <lane id=":469_3_0" index="0" speed="6.51" length="9.03" shape="1410.40,2204.80 1407.95,2205.15 1406.20,2206.20 1405.15,2207.95 1404.80,2210.40"/>
        <lane id=":469_3_1" index="1" speed="8.00" length="14.19" shape="1410.40,2201.60 1406.55,2202.15 1403.80,2203.80 1402.15,2206.55 1401.60,2210.40"/>
    </edge>
    <edge id=":469_5" function="internal">
        <lane id=":469_5_0" index="0" speed="9.26" length="19.35" shape="1410.40,2201.60 1405.15,2200.85 1401.40,2198.60 1399.15,2194.85 1398.40,2189.60"/>
    </edge>
    <edge id=":469_6" function="internal">
        <lane id=":469_6_0" index="0" speed="6.51" length="9.03" shape="1404.80,2189.60 1405.15,2192.05 1406.20,2193.80 1407.95,2194.85 1410.40,2195.20"/>
    </edge>
    <edge id=":469_7" function="internal">
        <lane id=":469_7_0" index="0" speed="13.89" length="20.80" shape="1404.80,2189.60 1404.80,2210.40"/>
        <lane id=":469_7_1" index="1" speed="13.89" length="20.80" shape="1401.60,2189.60 1401.60,2210.40"/>
    </edge>
    <edge id=":785_0" function="internal">
        <lane id=":785_0_0" index="0" speed="6.51" length="9.03" shape="1395.20,2010.40 1394.85,2007.95 1393.80,2006.20 1392.05,2005.15 1389.60,2004.80"/>
    </edge>
    <edge id=":785_1" function="internal">
        <lane id=":785_1_0" index="0" speed="13.89" length="20.80" shape="1395.20,2010.40 1395.20,1989.60"/>
        <lane id=":785_1_1" index="1" speed="13.89" length="20.80" shape="1398.40,2010.40 1398.40,1989.60"/>
    </edge>
    <edge id=":785_3" function="internal">
        <lane id=":785_3_0" index="0" speed="9.26" length="5.01" shape="1398.40,2010.40 1399.11,2005.44"/>
    </edge>
    <edge id=":785_16" function="internal">
        <lane id=":785_16_0" index="0" speed="9.26" length="14.34" shape="1399.11,2005.44 1399.15,2005.15 1401.40,2001.40 1405.15,1999.15 1410.40,1998.40"/>
    </edge>
    <edge id=":785_4" function="internal">
        <lane id=":785_4_0" index="0" speed="6.51" length="9.03" shape="1410.40,2004.80 1407.95,2005.15 1406.20,2006.20 1405.15,2007.95 1404.80,2010.40"/>
    </edge>
    <edge id=":785_5" function="internal">
        <lane id=":785_5_0" index="0" speed="13.89" length="20.80" shape="1410.40,2004.80 1389.60,2004.80"/>
        <lane id=":785_5_1" index="1" speed="13.89" length="20.80" shape="1410.40,2001.60 1389.60,2001.60"/>
    </edge>
    <edge id=":785_7" function="internal">
        <lane id=":785_7_0" index="0" speed="9.26" length="5.01" shape="1410.40,2001.60 1405.44,2000.89"/>
    </edge>
    <edge id=":785_17" function="internal">
        <lane id=":785_17_0" index="0" speed="9.26" length="14.34" shape="1405.44,2000.89 1405.15,2000.85 1401.40,1998.60 1399.15,1994.85 1398.40,1989.60"/>
    </edge>
    <edge id=":785_8" function="internal">
        <lane id=":785_8_0" index="0" speed="6.51" length="9.03" shape="1404.80,1989.60 1405.15,1992.05 1406.20,1993.80 1407.95,1994.85 1410.40,1995.20"/>
    </edge>
    <edge id=":785_9" function="internal">
        <lane id=":785_9_0" index="0" speed="13.89" length="20.80" shape="1404.80,1989.60 1404.80,2010.40"/>
        <lane id=":785_9_1" index="1" speed="13.89" length="20.80" shape="1401.60,1989.60 1401.60,2010.40"/>
    </edge>
    <edge id=":785_11" function="internal">
        <lane id=":785_11_0" index="0" speed="9.26" length="5.01" shape="1401.60,1989.60 1400.89,1994.56"/>
    </edge>
    <edge id=":785_18" function="internal">
        <lane id=":785_18_0" index="0" speed="9.26" length="14.34" shape="1400.89,1994.56 1400.85,1994.85 1398.60,1998.60 1394.85,2000.85 1389.60,2001.60"/>
    </edge>
    <edge id=":785_12" function="internal">
        <lane id=":785_12_0" index="0" speed="6.51" length="9.03" shape="1389.60,1995.20 1392.05,1994.85 1393.80,1993.80 1394.85,1992.05 1395.20,1989.60"/>
    </edge>
    <edge id=":785_13" function="internal">
        <lane id=":785_13_0" index="0" speed="13.89" length="20.80" shape="1389.60,1995.20 1410.40,1995.20"/>
        <lane id=":785_13_1" index="1" speed="13.89" length="20.80" shape="1389.60,1998.40 1410.40,1998.40"/>
    </edge>
    <edge id=":785_15" function="internal">
        <lane id=":785_15_0" index="0" speed="9.26" length="5.01" shape="1389.60,1998.40 1394.56,1999.11"/>
    </edge>
    <edge id=":785_19" function="internal">
        <lane id=":785_19_0" index="0" speed="9.26" length="14.34" shape="1394.56,1999.11 1394.85,1999.15 1398.60,2001.40 1400.85,2005.15 1401.60,2010.40"/>
    </edge>

    <edge id="-1069" from="1068" to="467" priority="-1">
        <lane id="-1069_0" index="0" speed="13.89" length="383.20" shape="1395.20,2993.60 1395.20,2610.40"/>
        <lane id="-1069_1" index="1" speed="13.89" length="383.20" shape="1398.40,2993.60 1398.40,2610.40"/>
    </edge>
    <edge id="-1072" from="1071" to="785" priority="-1">
        <lane id="-1072_0" index="0" speed="13.89" length="189.60" shape="1404.80,1800.00 1404.80,1989.60"/>
        <lane id="-1072_1" index="1" speed="13.89" length="189.60" shape="1401.60,1800.00 1401.60,1989.60"/>
    </edge>
    <edge id="-1439" from="1438" to="785" priority="-1">
        <lane id="-1439_0" index="0" speed="13.89" length="183.20" shape="1206.40,1995.20 1389.60,1995.20"/>
        <lane id="-1439_1" index="1" speed="13.89" length="183.20" shape="1206.40,1998.40 1389.60,1998.40"/>
    </edge>
    <edge id="-1443" from="1442" to="785" priority="-1">
        <lane id="-1443_0" index="0" speed="13.89" length="183.20" shape="1593.60,2004.80 1410.40,2004.80"/>
        <lane id="-1443_1" index="1" speed="13.89" length="183.20" shape="1593.60,2001.60 1410.40,2001.60"/>
    </edge>
    <edge id="-1448" from="1447" to="469" priority="-1">
        <lane id="-1448_0" index="0" speed="13.89" length="183.20" shape="1593.60,2204.80 1410.40,2204.80"/>
        <lane id="-1448_1" index="1" speed="13.89" length="183.20" shape="1593.60,2201.60 1410.40,2201.60"/>
    </edge>
    <edge id="-1907" from="1906" to="304" priority="-1">
        <lane id="-1907_0" index="0" speed="13.89" length="193.60" shape="1600.00,2795.20 1793.60,2795.20"/>
        <lane id="-1907_1" index="1" speed="13.89" length="193.60" shape="1600.00,2798.40 1793.60,2798.40"/>
    </edge>
    <edge id="-1912" from="1911" to="1068" priority="-1">
        <lane id="-1912_0" index="0" speed="13.89" length="193.60" shape="1600.00,3004.80 1406.40,3004.80"/>
        <lane id="-1912_1" index="1" speed="13.89" length="193.60" shape="1600.00,3001.60 1406.40,3001.60"/>
    </edge>
    <edge id="-1916" from="1572" to="1438" priority="-1">
        <lane id="-1916_0" index="0" speed="13.89" length="393.60" shape="1204.80,1600.00 1204.80,1993.60"/>
        <lane id="-1916_1" index="1" speed="13.89" length="393.60" shape="1201.60,1600.00 1201.60,1993.60"/>
    </edge>
    <edge id="-1918" from="1447" to="1442" priority="-1">
        <lane id="-1918_0" index="0" speed="13.89" length="187.20" shape="1595.20,2193.60 1595.20,2006.40"/>
        <lane id="-1918_1" index="1" speed="13.89" length="187.20" shape="1598.40,2193.60 1598.40,2006.40"/>
    </edge>
    <edge id="-270" from="269" to="257" priority="-1">
        <lane id="-270_0" index="0" speed="13.89" length="189.60" shape="1795.20,2389.60 1795.20,2200.00"/>
        <lane id="-270_1" index="1" speed="13.89" length="189.60" shape="1798.40,2389.60 1798.40,2200.00"/>
    </edge>
    <edge id="-305" from="304" to="269" priority="-1">
        <lane id="-305_0" index="0" speed="13.89" length="383.20" shape="1795.20,2793.60 1795.20,2410.40"/>
        <lane id="-305_1" index="1" speed="13.89" length="383.20" shape="1798.40,2793.60 1798.40,2410.40"/>
    </edge>
    <edge id="-307" from="306" to="269" priority="-1">
        <lane id="-307_0" index="0" speed="13.89" length="379.20" shape="1410.40,2395.20 1789.60,2395.20"/>
        <lane id="-307_1" index="1" speed="13.89" length="379.20" shape="1410.40,2398.40 1789.60,2398.40"/>
    </edge>
    <edge id="-315" from="314" to="269" priority="-1">
        <lane id="-315_0" index="0" speed="13.89" length="189.60" shape="2000.00,2404.80 1810.40,2404.80"/>
        <lane id="-315_1" index="1" speed="13.89" length="189.60" shape="2000.00,2401.60 1810.40,2401.60"/>
    </edge>
    <edge id="-462" from="461" to="306" priority="-1">
        <lane id="-462_0" index="0" speed="13.89" length="389.60" shape="1000.00,2395.20 1389.60,2395.20"/>
        <lane id="-462_1" index="1" speed="13.89" length="389.60" shape="1000.00,2398.40 1389.60,2398.40"/>
    </edge>
    <edge id="-468" from="467" to="306" priority="-1">
        <lane id="-468_0" index="0" speed="13.89" length="179.20" shape="1395.20,2589.60 1395.20,2410.40"/>
        <lane id="-468_1" index="1" speed="13.89" length="179.20" shape="1398.40,2589.60 1398.40,2410.40"/>
    </edge>
    <edge id="-470" from="469" to="306" priority="-1">
        <lane id="-470_0" index="0" speed="13.89" length="179.20" shape="1404.80,2210.40 1404.80,2389.60"/>
        <lane id="-470_1" index="1" speed="13.89" length="179.20" shape="1401.60,2210.40 1401.60,2389.60"/>
    </edge>
    <edge id="-508" from="507" to="467" priority="-1">
        <lane id="-508_0" index="0" speed="13.89" length="189.60" shape="1600.00,2604.80 1410.40,2604.80"/>
        <lane id="-508_1" index="1" speed="13.89" length="189.60" shape="1600.00,2601.60 1410.40,2601.60"/>
    </edge>
    <edge id="-786" from="785" to="469" priority="-1">
        <lane id="-786_0" index="0" speed="13.89" length="179.20" shape="1404.80,2010.40 1404.80,2189.60"/>
        <lane id="-786_1" index="1" speed="13.89" length="179.20" shape="1401.60,2010.40 1401.60,2189.60"/>
    </edge>
    <edge id="1069" from="467" to="1068" priority="-1">
        <lane id="1069_0" index="0" speed="13.89" length="383.20" shape="1404.80,2610.40 1404.80,2993.60"/>
        <lane id="1069_1" index="1" speed="13.89" length="383.20" shape="1401.60,2610.40 1401.60,2993.60"/>
    </edge>
    <edge id="1072" from="785" to="1071" priority="-1">
        <lane id="1072_0" index="0" speed="13.89" length="189.60" shape="1395.20,1989.60 1395.20,1800.00"/>
        <lane id="1072_1" index="1" speed="13.89" length="189.60" shape="1398.40,1989.60 1398.40,1800.00"/>
    </edge>
    <edge id="1439" from="785" to="1438" priority="-1">
        <lane id="1439_0" index="0" speed="13.89" length="183.20" shape="1389.60,2004.80 1206.40,2004.80"/>
        <lane id="1439_1" index="1" speed="13.89" length="183.20" shape="1389.60,2001.60 1206.40,2001.60"/>
    </edge>
    <edge id="1443" from="785" to="1442" priority="-1">
        <lane id="1443_0" index="0" speed="13.89" length="183.20" shape="1410.40,1995.20 1593.60,1995.20"/>
        <lane id="1443_1" index="1" speed="13.89" length="183.20" shape="1410.40,1998.40 1593.60,1998.40"/>
    </edge>
    <edge id="1448" from="469" to="1447" priority="-1">
        <lane id="1448_0" index="0" speed="13.89" length="183.20" shape="1410.40,2195.20 1593.60,2195.20"/>
        <lane id="1448_1" index="1" speed="13.89" length="183.20" shape="1410.40,2198.40 1593.60,2198.40"/>
    </edge>
    <edge id="1907" from="304" to="1906" priority="-1">
        <lane id="1907_0" index="0" speed="13.89" length="193.60" shape="1793.60,2804.80 1600.00,2804.80"/>
        <lane id="1907_1" index="1" speed="13.89" length="193.60" shape="1793.60,2801.60 1600.00,2801.60"/>
    </edge>
    <edge id="1912" from="1068" to="1911" priority="-1">
        <lane id="1912_0" index="0" speed="13.89" length="193.60" shape="1406.40,2995.20 1600.00,2995.20"/>
        <lane id="1912_1" index="1" speed="13.89" length="193.60" shape="1406.40,2998.40 1600.00,2998.40"/>
    </edge>
    <edge id="1916" from="1438" to="1572" priority="-1">
        <lane id="1916_0" index="0" speed="13.89" length="393.60" shape="1195.20,1993.60 1195.20,1600.00"/>
        <lane id="1916_1" index="1" speed="13.89" length="393.60" shape="1198.40,1993.60 1198.40,1600.00"/>
    </edge>
    <edge id="1918" from="1442" to="1447" priority="-1">
        <lane id="1918_0" index="0" speed="13.89" length="187.20" shape="1604.80,2006.40 1604.80,2193.60"/>
        <lane id="1918_1" index="1" speed="13.89" length="187.20" shape="1601.60,2006.40 1601.60,2193.60"/>
    </edge>
    <edge id="270" from="257" to="269" priority="-1">
        <lane id="270_0" index="0" speed="13.89" length="189.60" shape="1804.80,2200.00 1804.80,2389.60"/>
        <lane id="270_1" index="1" speed="13.89" length="189.60" shape="1801.60,2200.00 1801.60,2389.60"/>
    </edge>
    <edge id="305" from="269" to="304" priority="-1">
        <lane id="305_0" index="0" speed="13.89" length="383.20" shape="1804.80,2410.40 1804.80,2793.60"/>
        <lane id="305_1" index="1" speed="13.89" length="383.20" shape="1801.60,2410.40 1801.60,2793.60"/>
    </edge>
    <edge id="307" from="269" to="306" priority="-1">
        <lane id="307_0" index="0" speed="13.89" length="379.20" shape="1789.60,2404.80 1410.40,2404.80"/>
        <lane id="307_1" index="1" speed="13.89" length="379.20" shape="1789.60,2401.60 1410.40,2401.60"/>
    </edge>
    <edge id="315" from="269" to="314" priority="-1">
        <lane id="315_0" index="0" speed="13.89" length="189.60" shape="1810.40,2395.20 2000.00,2395.20"/>
        <lane id="315_1" index="1" speed="13.89" length="189.60" shape="1810.40,2398.40 2000.00,2398.40"/>
    </edge>
    <edge id="462" from="306" to="461" priority="-1">
        <lane id="462_0" index="0" speed="13.89" length="389.60" shape="1389.60,2404.80 1000.00,2404.80"/>
        <lane id="462_1" index="1" speed="13.89" length="389.60" shape="1389.60,2401.60 1000.00,2401.60"/>
    </edge>
    <edge id="468" from="306" to="467" priority="-1">
        <lane id="468_0" index="0" speed="13.89" length="179.20" shape="1404.80,2410.40 1404.80,2589.60"/>
        <lane id="468_1" index="1" speed="13.89" length="179.20" shape="1401.60,2410.40 1401.60,2589.60"/>
    </edge>
    <edge id="470" from="306" to="469" priority="-1">
        <lane id="470_0" index="0" speed="13.89" length="179.20" shape="1395.20,2389.60 1395.20,2210.40"/>
        <lane id="470_1" index="1" speed="13.89" length="179.20" shape="1398.40,2389.60 1398.40,2210.40"/>
    </edge>
    <edge id="508" from="467" to="507" priority="-1">
        <lane id="508_0" index="0" speed="13.89" length="189.60" shape="1410.40,2595.20 1600.00,2595.20"/>
        <lane id="508_1" index="1" speed="13.89" length="189.60" shape="1410.40,2598.40 1600.00,2598.40"/>
    </edge>
    <edge id="786" from="469" to="785" priority="-1">
        <lane id="786_0" index="0" speed="13.89" length="179.20" shape="1395.20,2189.60 1395.20,2010.40"/>
        <lane id="786_1" index="1" speed="13.89" length="179.20" shape="1398.40,2189.60 1398.40,2010.40"/>
    </edge>

    <tlLogic id="269" type="static" programID="0" offset="0">
        <phase duration="42" state="GGGgrrrrGGGgrrrr"/>
        <phase duration="3"  state="yyyyrrrryyyyrrrr"/>
        <phase duration="42" state="rrrrGGGgrrrrGGGg"/>
        <phase duration="3"  state="rrrryyyyrrrryyyy"/>
    </tlLogic>
    <tlLogic id="306" type="static" programID="0" offset="0">
        <phase duration="42" state="GGGgrrrrGGGgrrrr"/>
        <phase duration="3"  state="yyyyrrrryyyyrrrr"/>
        <phase duration="42" state="rrrrGGGgrrrrGGGg"/>
        <phase duration="3"  state="rrrryyyyrrrryyyy"/>
    </tlLogic>
    <tlLogic id="467" type="static" programID="0" offset="0">
        <phase duration="42" state="GGgrrrGGG"/>
        <phase duration="3"  state="yyyrrrGyy"/>
        <phase duration="42" state="rrrGGGGrr"/>
        <phase duration="3"  state="rrryyyGrr"/>
    </tlLogic>