<?xml version="1.0" encoding="UTF-8"?>

<!-- generated on 2025-03-09 19:55:08.668544 by randomTrips.py v1_19_0+1770-8bb5c24c187
<configuration>
    <net-file value="random_subnetwork_1.net.xml"/>
    <output-trip-file value="random_subnetwork_1_light.trips.xml"/>
    <fringe-factor value="100"/>
    <remove-loops value="True"/>
    <validate value="True"/>
    <period value="4.3851"/>
    <random-depart value="True"/>
    <binomial value="4"/>
</configuration>
-->

<!-- generated on 2025-03-09 19:55:08 by Eclipse SUMO duarouter Version v1_19_0+1770-8bb5c24c187
<configuration xmlns:xsi="http://www.w3.org/2001/XMLSchema-instance" xsi:noNamespaceSchemaLocation="http://sumo.dlr.de/xsd/duarouterConfiguration.xsd">

    <input>
        <net-file value="random_subnetwork_1.net.xml"/>
        <route-files value="random_subnetwork_1_light.trips.xml"/>
    </input>

    <output>
        <output-file value="random_subnetwork_1_light.trips.xml.tmp"/>
        <alternatives-output value="NUL"/>
        <write-trips value="true"/>
    </output>

    <processing>
        <remove-loops value="true"/>
    </processing>

    <time>
        <begin value="0.0"/>
        <end value="3600.0"/>
    </time>

    <report>
        <no-warnings value="true"/>
        <ignore-errors value="true"/>
        <no-step-log value="true"/>
    </report>

</configuration>
-->

<routes xmlns:xsi="http://www.w3.org/2001/XMLSchema-instance" xsi:noNamespaceSchemaLocation="http://sumo.dlr.de/xsd/routes_file.xsd">
    <trip id="0" depart="0.00" from="-1912" to="1072"/>
    <trip id="1" depart="1.00" from="-1907" to="1916"/>
    <trip id="2" depart="2.00" from="-1907" to="315"/>
    <trip id="3" depart="3.00" from="-508" to="315"/>
    <trip id="4" depart="8.00" from="-1907" to="1907"/>
    <trip id="5" depart="14.00" from="-1912" to="1907"/>
    <trip id="6" depart="19.00" from="-1072" to="1918"/>
    <trip id="7" depart="21.00" from="-462" to="315"/>
    <trip id="8" depart="27.00" from="-1912" to="-270"/>
    <trip id="9" depart="44.00" from="-786" to="462"/>
    <trip id="10" depart="62.00" from="-508" to="1907"/>
    <trip id="11" depart="67.00" from="-508" to="315"/>
    <trip id="12" depart="68.00" from="-1072" to="508"/>
    <trip id="13" depart="74.00" from="-462" to="1907"/>
    <trip id="14" depart="78.00" from="-1907" to="1907"/>
    <trip id="15" depart="84.00" from="270" to="1916"/>
    <trip id="16" depart="90.00" from="-1912" to="1912"/>
    <trip id="17" depart="95.00" from="-1907" to="1912"/>
    <trip id="18" depart="97.00" from="-508" to="462"/>
    <trip id="19" depart="99.00" from="-1912" to="462"/>
    <trip id="20" depart="110.00" from="-1912" to="462"/>
    <trip id="21" depart="112.00" from="-1912" to="315"/>
    <trip id="22" depart="114.00" from="-1916" to="1916"/>
    <trip id="23" depart="114.00" from="-462" to="1072"/>
    <trip id="24" depart="115.00" from="-1916" to="1072"/>
    <trip id="25" depart="117.00" from="-315" to="786"/>
    <trip id="26" depart="119.00" from="-1907" to="-270"/>
    <trip id="27" depart="122.00" from="-1912" to="315"/>
    <trip id="28" depart="133.00" from="-508" to="1072"/>
    <trip id="29" depart="135.00" from="270" to="-270"/>
    <trip id="30" depart="144.00" from="-315" to="1907"/>
    <trip id="31" depart="147.00" from="270" to="1912"/>
    <trip id="32" depart="148.00" from="-1907" to="1916"/>
    <trip id="33" depart="154.00" from="-1916" to="1916"/>
    <trip id="34" depart="162.00" from="-1916" to="1907"/>
    <trip id="35" depart="164.00" from="-508" to="1912"/>
    <trip id="36" depart="186.00" from="-508" to="315"/>
    <trip id="37" depart="188.00" from="-315" to="1916"/>
    <trip id="38" depart="193.00" from="-1072" to="315"/>
    <trip id="39" depart="196.00" from="-508" to="1907"/>
    <trip id="40" depart="200.00" from="-508" to="508"/>
    <trip id="41" depart="206.00" from="-315" to="1912"/>
    <trip id="42" depart="218.00" from="-315" to="1912"/>
    <trip id="43" depart="220.00" from="270" to="1916"/>
    <trip id="44" depart="226.00" from="-1912" to="1912"/>
    <trip id="45" depart="230.00" from="-508" to="1072"/>
    <trip id="46" depart="233.00" from="-508" to="1072"/>
    <trip id="47" depart="234.00" from="-1072" to="462"/>
    <trip id="48" depart="235.00" from="470" to="1916"/>
    <trip id="49" depart="237.00" from="-508" to="462"/>
    <trip id="50" depart="256.00" from="270" to="462"/>
    <trip id="51" depart="257.00" from="1448" to="1916"/>
    <trip id="52" depart="258.00" from="-508" to="1072"/>
    <trip id="53" depart="260.00" from="-1907" to="1916"/>
    <trip id="54" depart="264.00" from="-1916" to="1916"/>
    <trip id="55" depart="264.00" from="-1912" to="1072"/>
    <trip id="56" depart="265.00" from="-508" to="1072"/>
    <trip id="57" depart="267.00" from="-1072" to="508"/>
    <trip id="58" depart="269.00" from="-1912" to="462"/>
    <trip id="59" depart="280.00" from="-315" to="1907"/>
    <trip id="60" depart="281.00" from="-508" to="-270"/>
    <trip id="61" depart="300.00" from="-1912" to="462"/>
    <trip id="62" depart="312.00" from="-1072" to="1912"/>
    <trip id="63" depart="313.00" from="270" to="462"/>
    <trip id="64" depart="315.00" from="-1072" to="1072"/>
    <trip id="65" depart="317.00" from="-1916" to="462"/>
    <trip id="66" depart="319.00" from="-315" to="1072"/>
    <trip id="67" depart="323.00" from="-508" to="1907"/>
    <trip id="68" depart="325.00" from="-315" to="462"/>
    <trip id="69" depart="328.00" from="-1907" to="-270"/>
    <trip id="70" depart="337.00" from="-786" to="1907"/>
    <trip id="71" depart="340.00" from="-1072" to="462"/>
    <trip id="72" depart="353.00" from="-315" to="1907"/>
    <trip id="73" depart="359.00" from="-1439" to="1072"/>
    <trip id="74" depart="365.00" from="-1072" to="315"/>
    <trip id="75" depart="376.00" from="270" to="1916"/>
    <trip id="76" depart="377.00" from="-305" to="508"/>
    <trip id="77" depart="385.00" from="-1907" to="1907"/>
    <trip id="78" depart="391.00" from="-1916" to="508"/>
    <trip id="79" depart="394.00" from="270" to="-270"/>
    <trip id="80" depart="394.00" from="-1912" to="1072"/>
    <trip id="81" depart="410.00" from="-1916" to="315"/>
    <trip id="82" depart="410.00" from="-315" to="508"/>
    <trip id="83" depart="417.00" from="-315" to="-270"/>
    <trip id="84" depart="426.00" from="-462" to="315"/>
    <trip id="85" depart="440.00" from="-1912" to="-270"/>
    <trip id="86" depart="441.00" from="-1916" to="462"/>
    <trip id="87" depart="446.00" from="-1072" to="1907"/>
    <trip id="88" depart="450.00" from="-1907" to="-270"/>
    <trip id="89" depart="450.00" from="-315" to="315"/>
    <trip id="90" depart="451.00" from="468" to="1912"/>
    <trip id="91" depart="452.00" from="-315" to="1907"/>
    <trip id="92" depart="466.00" from="270" to="508"/>
    <trip id="93" depart="479.00" from="-508" to="508"/>
    <trip id="94" depart="481.00" from="-315" to="1907"/>
    <trip id="95" depart="482.00" from="-315" to="-270"/>
    <trip id="96" depart="483.00" from="-508" to="315"/>
    <trip id="97" depart="489.00" from="-1072" to="1072"/>
    <trip id="98" depart="491.00" from="-1907" to="462"/>
    <trip id="99" depart="492.00" from="-1072" to="508"/>
    <trip id="100" depart="493.00" from="270" to="1907"/>
    <trip id="101" depart="497.00" from="-1916" to="462"/>
    <trip id="102" depart="499.00" from="-1912" to="508"/>
    <trip id="103" depart="503.00" from="-1912" to="1907"/>
    <trip id="104" depart="505.00" from="-1912" to="-270"/>
    <trip id="105" depart="528.00" from="270" to="315"/>
    <trip id="106" depart="529.00" from="-1912" to="1916"/>
    <trip id="107" depart="532.00" from="-1072" to="1912"/>
    <trip id="108" depart="539.00" from="-315" to="1072"/>
    <trip id="109" depart="551.00" from="-1912" to="-270"/>
    <trip id="110" depart="554.00" from="-508" to="1907"/>
    <trip id="111" depart="557.00" from="-462" to="1916"/>
    <trip id="112" depart="573.00" from="-508" to="315"/>
    <trip id="113" depart="577.00" from="-1072" to="462"/>
    <trip id="114" depart="578.00" from="270" to="1072"/>
    <trip id="115" depart="583.00" from="-1916" to="-470"/>
    <trip id="116" depart="584.00" from="-462" to="462"/>
    <trip id="117" depart="588.00" from="-462" to="1912"/>
    <trip id="118" depart="595.00" from="270" to="508"/>
    <trip id="119" depart="599.00" from="-1072" to="1907"/>
    <trip id="120" depart="600.00" from="-1072" to="462"/>
    <trip id="121" depart="611.00" from="-508" to="1907"/>
    <trip id="122" depart="615.00" from="-508" to="1072"/>
    <trip id="123" depart="622.00" from="-1907" to="1916"/>
    <trip id="124" depart="625.00" from="-1916" to="1072"/>
    <trip id="125" depart="626.00" from="-462" to="462"/>
    <trip id="126" depart="638.00" from="-508" to="1907"/>
    <trip id="127" depart="640.00" from="-1916" to="1912"/>
    <trip id="128" depart="642.00" from="-508" to="508"/>
    <trip id="129" depart="644.00" from="-1072" to="508"/>
    <trip id="130" depart="646.00" from="-1916" to="1072"/>
    <trip id="131" depart="647.00" from="-462" to="1072"/>
    <trip id="132" depart="648.00" from="-462" to="1072"/>
    <trip id="133" depart="657.00" from="-468" to="1072"/>
    <trip id="134" depart="660.00" from="-462" to="508"/>
    <trip id="135" depart="663.00" from="270" to="1072"/>
    <trip id="136" depart="665.00" from="-315" to="508"/>
    <trip id="137" depart="673.00" from="-315" to="508"/>
    <trip id="138" depart="678.00" from="-1916" to="315"/>
    <trip id="139" depart="685.00" from="270" to="1072"/>
    <trip id="140" depart="688.00" from="-315" to="462"/>
    <trip id="141" depart="690.00" from="-1907" to="1907"/>
    <trip id="142" depart="711.00" from="-1912" to="1072"/>
    <trip id="143" depart="712.00" from="270" to="1907"/>
    <trip id="144" depart="713.00" from="-508" to="1907"/>
    <trip id="145" depart="720.00" from="-1907" to="462"/>
    <trip id="146" depart="722.00" from="-1916" to="1916"/>
    <trip id="147" depart="727.00" from="-508" to="462"/>
    <trip id="148" depart="727.00" from="270" to="315"/>
    <trip id="149" depart="728.00" from="-1912" to="462"/>
    <trip id="150" depart="739.00" from="-462" to="1916"/>
    <trip id="151" depart="749.00" from="-508" to="1072"/>
    <trip id="152" depart="752.00" from="-1912" to="462"/>
    <trip id="153" depart="755.00" from="-1907" to="1907"/>
    <trip id="154" depart="755.00" from="-1912" to="462"/>
    <trip id="155" depart="763.00" from="270" to="1072"/>
    <trip id="156" depart="764.00" from="-305" to="315"/>
    <trip id="157" depart="764.00" from="-462" to="1912"/>
    <trip id="158" depart="771.00" from="-315" to="1072"/>
    <trip id="159" depart="772.00" from="-462" to="508"/>
    <trip id="160" depart="775.00" from="-1912" to="462"/>
    <trip id="161" depart="777.00" from="-508" to="315"/>
    <trip id="162" depart="784.00" from="-462" to="462"/>
    <trip id="163" depart="785.00" from="-1912" to="1907"/>
    <trip id="164" depart="790.00" from="-462" to="1072"/>
    <trip id="165" depart="792.00" from="-1907" to="315"/>
    <trip id="166" depart="796.00" from="-1072" to="1916"/>
    <trip id="167" depart="798.00" from="-1907" to="1912"/>
    <trip id="168" depart="802.00" from="-1907" to="1072"/>
    <trip id="169" depart="807.00" from="270" to="462"/>
    <trip id="170" depart="821.00" from="-1907" to="315"/>
    <trip id="171" depart="823.00" from="-508" to="-270"/>
    <trip id="172" depart="827.00" from="-1912" to="1916"/>
    <trip id="173" depart="835.00" from="270" to="1916"/>
    <trip id="174" depart="841.00" from="-462" to="1912"/>
    <trip id="175" depart="845.00" from="270" to="1072"/>
    <trip id="176" depart="846.00" from="-1072" to="315"/>
    <trip id="177" depart="850.00" from="-508" to="1916"/>
    <trip id="178" depart="852.00" from="-462" to="1916"/>
    <trip id="179" depart="860.00" from="-315" to="1916"/>
    <trip id="180" depart="871.00" from="-1907" to="1072"/>
    <trip id="181" depart="876.00" from="-315" to="-270"/>
    <trip id="182" depart="885.00" from="-1907" to="508"/>
    <trip id="183" depart="886.00" from="270" to="1907"/>
    <trip id="184" depart="896.00" from="-1072" to="1916"/>
    <trip id="185" depart="897.00" from="-315" to="-270"/>
    <trip id="186" depart="898.00" from="-462" to="315"/>
    <trip id="187" depart="905.00" from="-508" to="1912"/>
    <trip id="188" depart="908.00" from="-315" to="1072"/>
    <trip id="189" depart="913.00" from="-462" to="315"/>
    <trip id="190" depart="922.00" from="-1072" to="1072"/>
    <trip id="191" depart="924.00" from="-1916" to="508"/>
    <trip id="192" depart="927.00" from="-315" to="1916"/>
    <trip id="193" depart="928.00" from="-1907" to="1069"/>
    <trip id="194" depart="938.00" from="-1072" to="-270"/>
    <trip id="195" depart="940.00" from="-508" to="1072"/>
    <trip id="196" depart="947.00" from="-1916" to="1916"/>
    <trip id="197" depart="950.00" from="-508" to="1912"/>
    <trip id="198" depart="953.00" from="-1907" to="1916"/>
    <trip id="199" depart="965.00" from="-1072" to="462"/>
    <trip id="200" depart="974.00" from="-462" to="315"/>
    <trip id="201" depart="977.00" from="-1916" to="462"/>
    <trip id="202" depart="980.00" from="-462" to="462"/>
    <trip id="203" depart="986.00" from="-508" to="462"/>
    <trip id="204" depart="986.00" from="270" to="508"/>
    <trip id="205" depart="987.00" from="-1916" to="1907"/>
    <trip id="206" depart="987.00" from="-1916" to="1912"/>
    <trip id="207" depart="994.00" from="-1072" to="1916"/>
    <trip id="208" depart="998.00" from="-508" to="-270"/>
    <trip id="209" depart="1001.00" from="-1916" to="462"/>
    <trip id="210" depart="1003.00" from="270" to="1916"/>
    <trip id="211" depart="1007.00" from="-1072" to="462"/>
    <trip id="212" depart="1018.00" from="-462" to="1907"/>
    <trip id="213" depart="1018.00" from="-508" to="462"/>
    <trip id="214" depart="1029.00" from="-1072" to="1907"/>
    <trip id="215" depart="1042.00" from="-508" to="315"/>
    <trip id="216" depart="1044.00" from="-1912" to="1072"/>
    <trip id="217" depart="1049.00" from="-508" to="1907"/>
    <trip id="218" depart="1051.00" from="-508" to="1907"/>
    <trip id="219" depart="1052.00" from="-315" to="1072"/>
    <trip id="220" depart="1052.00" from="-462" to="1912"/>
    <trip id="221" depart="1055.00" from="-1916" to="-270"/>
    <trip id="222" depart="1060.00" from="-1912" to="508"/>
    <trip id="223" depart="1062.00" from="-508" to="1072"/>
    <trip id="224" depart="1063.00" from="270" to="508"/>
    <trip id="225" depart="1064.00" from="-462" to="-270"/>
    <trip id="226" depart="1064.00" from="-1907" to="1916"/>
    <trip id="227" depart="1066.00" from="-315" to="315"/>
    <trip id="228" depart="1066.00" from="-1907" to="1907"/>
    <trip id="229" depart="1067.00" from="-462" to="-270"/>
    <trip id="230" depart="1069.00" from="-1439" to="315"/>
    <trip id="231" depart="1072.00" from="-1907" to="1916"/>
    <trip id="232" depart="1075.00" from="-315" to="1907"/>
    <trip id="233" depart="1092.00" from="-508" to="-270"/>
    <trip id="234" depart="1096.00" from="-462" to="1907"/>
    <trip id="235" depart="1099.00" from="307" to="1916"/>
    <trip id="236" depart="1100.00" from="-1912" to="1912"/>
    <trip id="237" depart="1102.00" from="-315" to="1072"/>
    <trip id="238" depart="1115.00" from="270" to="1072"/>
    <trip id="239" depart="1118.00" from="-1907" to="315"/>
    <trip id="240" depart="1118.00" from="-508" to="315"/>
    <trip id="241" depart="1119.00" from="-1916" to="1072"/>
    <trip id="242" depart="1131.00" from="-1072" to="1916"/>
    <trip id="243" depart="1133.00" from="-1907" to="1907"/>
    <trip id="244" depart="1134.00" from="-462" to="1907"/>
    <trip id="245" depart="1135.00" from="-1907" to="1907"/>
    <trip id="246" depart="1142.00" from="270" to="1916"/>
    <trip id="247" depart="1144.00" from="-1916" to="1912"/>
    <trip id="248" depart="1147.00" from="-1916" to="1912"/>
    <trip id="249" depart="1151.00" from="270" to="315"/>
    <trip id="250" depart="1152.00" from="-315" to="315"/>
    <trip id="251" depart="1155.00" from="-462" to="1916"/>
    <trip id="252" depart="1159.00" from="-1916" to="1072"/>
    <trip id="253" depart="1167.00" from="-1916" to="1907"/>
    <trip id="254" depart="1180.00" from="-1907" to="1072"/>
    <trip id="255" depart="1183.00" from="270" to="1912"/>
    <trip id="256" depart="1185.00" from="-462" to="462"/>
    <trip id="257" depart="1190.00" from="-462" to="1912"/>
    <trip id="258" depart="1202.00" from="-1912" to="462"/>
    <trip id="259" depart="1204.00" from="270" to="315"/>
    <trip id="260" depart="1205.00" from="270" to="462"/>
    <trip id="261" depart="1208.00" from="-1072" to="1072"/>
    <trip id="262" depart="1217.00" from="270" to="1912"/>
    <trip id="263" depart="1218.00" from="270" to="315"/>
    <trip id="264" depart="1224.00" from="-1072" to="-270"/>
    <trip id="265" depart="1225.00" from="-1072" to="508"/>
    <trip id="266" depart="1242.00" from="270" to="462"/>
    <trip id="267" depart="1246.00" from="-1916" to="1072"/>
    <trip id="268" depart="1251.00" from="-1072" to="462"/>
    <trip id="269" depart="1251.00" from="-1072" to="462"/>
    <trip id="270" depart="1253.00" from="-1907" to="315"/>
    <trip id="271" depart="1254.00" from="-462" to="468"/>
    <trip id="272" depart="1254.00" from="-1912" to="462"/>
    <trip id="273" depart="1262.00" from="-1072" to="462"/>
    <trip id="274" depart="1263.00" from="-1916" to="-270"/>
    <trip id="275" depart="1266.00" from="-1907" to="1912"/>
    <trip id="276" depart="1268.00" from="-1907" to="-270"/>
    <trip id="277" depart="1272.00" from="-462" to="1907"/>
    <trip id="278" depart="1273.00" from="468" to="508"/>
    <trip id="279" depart="1289.00" from="270" to="-270"/>
    <trip id="280" depart="1290.00" from="-315" to="1912"/>
    <trip id="281" depart="1291.00" from="-462" to="508"/>
    <trip id="282" depart="1294.00" from="-1916" to="462"/>
    <trip id="283" depart="1296.00" from="-1916" to="1907"/>
    <trip id="284" depart="1298.00" from="270" to="315"/>
    <trip id="285" depart="1319.00" from="-1912" to="1912"/>
    <trip id="286" depart="1322.00" from="-1912" to="-270"/>
    <trip id="287" depart="1323.00" from="-1912" to="1907"/>
    <trip id="288" depart="1325.00" from="-462" to="508"/>
    <trip id="289" depart="1331.00" from="-462" to="1916"/>
    <trip id="290" depart="1332.00" from="-315" to="1912"/>
    <trip id="291" depart="1344.00" from="-508" to="462"/>
    <trip id="292" depart="1345.00" from="-1072" to="1907"/>
    <trip id="293" depart="1358.00" from="-315" to="1907"/>
    <trip id="294" depart="1366.00" from="-508" to="1072"/>
    <trip id="295" depart="1369.00" from="-1072" to="462"/>
    <trip id="296" depart="1375.00" from="-1907" to="1072"/>
    <trip id="297" depart="1382.00" from="-1912" to="-270"/>
    <trip id="298" depart="1395.00" from="-1072" to="315"/>
    <trip id="299" depart="1400.00" from="-1916" to="508"/>
    <trip id="300" depart="1401.00" from="-315" to="462"/>
    <trip id="301" depart="1407.00" from="-1072" to="462"/>
    <trip id="302" depart="1407.00" from="270" to="1907"/>
    <trip id="303" depart="1411.00" from="-1912" to="1912"/>
    <trip id="304" depart="1417.00" from="307" to="1912"/>
    <trip id="305" depart="1423.00" from="-462" to="462"/>
    <trip id="306" depart="1433.00" from="-1907" to="1072"/>
    <trip id="307" depart="1435.00" from="-508" to="-270"/>
    <trip id="308" depart="1446.00" from="270" to="1916"/>
    <trip id="309" depart="1454.00" from="-1069" to="462"/>
    <trip id="310" depart="1458.00" from="-1072" to="315"/>
    <trip id="311" depart="1476.00" from="-1907" to="1907"/>
    <trip id="312" depart="1481.00" from="-1912" to="1916"/>
    <trip id="313" depart="1485.00" from="-1907" to="462"/>
    <trip id="314" depart="1489.00" from="-1907" to="1072"/>
    <trip id="315" depart="1489.00" from="-1912" to="315"/>
    <trip id="316" depart="1490.00" from="-1912" to="315"/>
    <trip id="317" depart="1496.00" from="-462" to="315"/>
    <trip id="318" depart="1499.00" from="270" to="315"/>
    <trip id="319" depart="1501.00" from="-462" to="1907"/>
    <trip id="320" depart="1501.00" from="-1072" to="508"/>
    <trip id="321" depart="1510.00" from="-1912" to="1912"/>
    <trip id="322" depart="1514.00" from="-1072" to="-270"/>
    <trip id="323" depart="1522.00" from="-1072" to="1072"/>
    <trip id="324" depart="1526.00" from="-1072" to="-270"/>
    <trip id="325" depart="1529.00" from="-1907" to="1072"/>
    <trip id="326" depart="1531.00" from="-1072" to="-307"/>
    <trip id="327" depart="1538.00" from="-1912" to="1072"/>
    <trip id="328" depart="1546.00" from="-1072" to="508"/>
    <trip id="329" depart="1547.00" from="-1072" to="1912"/>
    <trip id="330" depart="1549.00" from="270" to="1907"/>
    <trip id="331" depart="1553.00" from="-1072" to="-307"/>
    <trip id="332" depart="1562.00" from="-1907" to="-270"/>
    <trip id="333" depart="1568.00" from="-1912" to="1916"/>
    <trip id="334" depart="1571.00" from="-1912" to="315"/>
    <trip id="335" depart="1574.00" from="-508" to="1916"/>
    <trip id="336" depart="1576.00" from="-462" to="-270"/>
    <trip id="337" depart="1592.00" from="-1907" to="1907"/>
    <trip id="338" depart="1593.00" from="270" to="508"/>
    <trip id="339" depart="1604.00" from="-315" to="1072"/>
    <trip id="340" depart="1606.00" from="-508" to="1072"/>
    <trip id="341" depart="1607.00" from="-508" to="-270"/>
    <trip id="342" depart="1612.00" from="-1072" to="1912"/>
    <trip id="343" depart="1622.00" from="-1916" to="462"/>
    <trip id="344" depart="1622.00" from="270" to="1912"/>
    <trip id="345" depart="1624.00" from="-462" to="1916"/>
    <trip id="346" depart="1630.00" from="-462" to="315"/>
    <trip id="347" depart="1630.00" from="-1916" to="508"/>
    <trip id="348" depart="1632.00" from="-508" to="315"/>
    <trip id="349" depart="1635.00" from="-1916" to="508"/>
    <trip id="350" depart="1635.00" from="-1912" to="508"/>
    <trip id="351" depart="1646.00" from="270" to="1912"/>
    <trip id="352" depart="1649.00" from="-1907" to="-270"/>
    <trip id="353" depart="1650.00" from="-462" to="508"/>
    <trip id="354" depart="1654.00" from="-1912" to="462"/>
    <trip id="355" depart="1656.00" from="-1912" to="462"/>
    <trip id="356" depart="1660.00" from="-1916" to="462"/>
    <trip id="357" depart="1669.00" from="-315" to="315"/>
    <trip id="358" depart="1675.00" from="-1907" to="786"/>
    <trip id="359" depart="1678.00" from="-1072" to="1907"/>
    <trip id="360" depart="1679.00" from="-1072" to="1072"/>
    <trip id="361" depart="1681.00" from="-508" to="508"/>
    <trip id="362" depart="1681.00" from="-462" to="1907"/>
    <trip id="363" depart="1687.00" from="-315" to="1072"/>
    <trip id="364" depart="1688.00" from="-508" to="462"/>
    <trip id="365" depart="1694.00" from="-1907" to="1072"/>
    <trip id="366" depart="1702.00" from="-1907" to="1072"/>
    <trip id="367" depart="1705.00" from="-1912" to="462"/>
    <trip id="368" depart="1713.00" from="-508" to="462"/>
    <trip id="369" depart="1715.00" from="-508" to="508"/>
    <trip id="370" depart="1720.00" from="-462" to="1912"/>
    <trip id="371" depart="1728.00" from="-1907" to="-270"/>
    <trip id="372" depart="1742.00" from="-1072" to="508"/>
    <trip id="373" depart="1745.00" from="-1072" to="1907"/>
    <trip id="374" depart="1747.00" from="-462" to="1072"/>
    <trip id="375" depart="1749.00" from="-1072" to="462"/>
    <trip id="376" depart="1769.00" from="270" to="1916"/>
    <trip id="377" depart="1772.00" from="-508" to="1907"/>
    <trip id="378" depart="1775.00" from="-786" to="-270"/>
    <trip id="379" depart="1783.00" from="-1916" to="462"/>
    <trip id="380" depart="1787.00" from="-315" to="315"/>
    <trip id="381" depart="1789.00" from="270" to="1912"/>
    <trip id="382" depart="1793.00" from="-508" to="315"/>
    <trip id="383" depart="1796.00" from="-508" to="315"/>
    <trip id="384" depart="1803.00" from="-1072" to="315"/>
    <trip id="385" depart="1811.00" from="-315" to="508"/>
    <trip id="386" depart="1812.00" from="-315" to="508"/>
    <trip id="387" depart="1821.00" from="-1912" to="-270"/>
    <trip id="388" depart="1841.00" from="-1072" to="1916"/>
    <trip id="389" depart="1851.00" from="786" to="1072"/>
    <trip id="390" depart="1859.00" from="-462" to="1916"/>
    <trip id="391" depart="1862.00" from="270" to="315"/>
    <trip id="392" depart="1863.00" from="-1907" to="1912"/>
    <trip id="393" depart="1868.00" from="-315" to="1916"/>
    <trip id="394" depart="1872.00" from="-315" to="1916"/>
    <trip id="395" depart="1877.00" from="270" to="1916"/>
    <trip id="396" depart="1879.00" from="-1912" to="508"/>
    <trip id="397" depart="1890.00" from="-315" to="-270"/>
    <trip id="398" depart="1893.00" from="-1916" to="508"/>
    <trip id="399" depart="1900.00" from="-315" to="1072"/>
    <trip id="400" depart="1901.00" from="-462" to="508"/>
    <trip id="401" depart="1921.00" from="-1916" to="1916"/>
    <trip id="402" depart="1922.00" from="270" to="1072"/>
    <trip id="403" depart="1929.00" from="-1916" to="315"/>
    <trip id="404" depart="1934.00" from="-1907" to="1912"/>
    <trip id="405" depart="1942.00" from="270" to="508"/>
    <trip id="406" depart="1943.00" from="-1916" to="1907"/>
    <trip id="407" depart="1946.00" from="-1072" to="-270"/>
    <trip id="408" depart="1949.00" from="-315" to="462"/>
    <trip id="409" depart="1956.00" from="-1907" to="1916"/>
    <trip id="410" depart="1959.00" from="-315" to="315"/>
    <trip id="411" depart="1960.00" from="-315" to="462"/>
    <trip id="412" depart="1966.00" from="-1907" to="-270"/>
    <trip id="413" depart="1969.00" from="-1912" to="1916"/>
    <trip id="414" depart="1980.00" from="-1907" to="1072"/>
    <trip id="415" depart="1984.00" from="-508" to="462"/>
    <trip id="416" depart="1984.00" from="-1907" to="-270"/>
    <trip id="417" depart="1985.00" from="270" to="508"/>
    <trip id="418" depart="1988.00" from="-462" to="1918"/>
    <trip id="419" depart="1990.00" from="-1916" to="1072"/>
    <trip id="420" depart="1999.00" from="270" to="1072"/>
    <trip id="421" depart="2008.00" from="-305" to="-270"/>
    <trip id="422" depart="2012.00" from="-1907" to="508"/>
    <trip id="423" depart="2013.00" from="270" to="1907"/>
    <trip id="424" depart="2015.00" from="-1912" to="-270"/>
    <trip id="425" depart="2019.00" from="-508" to="1912"/>
    <trip id="426" depart="2019.00" from="-508" to="315"/>
    <trip id="427" depart="2027.00" from="-1912" to="1916"/>
    <trip id="428" depart="2029.00" from="-1912" to="508"/>
    <trip id="429" depart="2030.00" from="-1912" to="508"/>
    <trip id="430" depart="2030.00" from="-1912" to="1907"/>
    <trip id="431" depart="2048.00" from="-508" to="1912"/>
    <trip id="432" depart="2053.00" from="-508" to="1907"/>
    <trip id="433" depart="2059.00" from="-1907" to="1912"/>
    <trip id="434" depart="2060.00" from="-315" to="1907"/>
    <trip id="435" depart="2061.00" from="-1439" to="508"/>
    <trip id="436" depart="2068.00" from="-508" to="1916"/>
    <trip id="437" depart="2072.00" from="-1916" to="462"/>
    <trip id="438" depart="2076.00" from="-508" to="-270"/>
    <trip id="439" depart="2086.00" from="-1912" to="1912"/>
    <trip id="440" depart="2089.00" from="-1916" to="1072"/>
    <trip id="441" depart="2091.00" from="-1907" to="1907"/>
    <trip id="442" depart="2100.00" from="-462" to="508"/>
    <trip id="443" depart="2109.00" from="-1072" to="508"/>
    <trip id="444" depart="2111.00" from="-1907" to="1916"/>
    <trip id="445" depart="2111.00" from="270" to="508"/>
    <trip id="446" depart="2113.00" from="-1072" to="1916"/>
    <trip id="447" depart="2124.00" from="-315" to="1916"/>
    <trip id="448" depart="2126.00" from="-1907" to="1907"/>
    <trip id="449" depart="2128.00" from="-1912" to="1912"/>
    <trip id="450" depart="2137.00" from="-462" to="-270"/>
    <trip id="451" depart="2142.00" from="-1072" to="-270"/>
    <trip id="452" depart="2155.00" from="-1907" to="462"/>
    <trip id="453" depart="2162.00" from="-462" to="1912"/>
    <trip id="454" depart="2164.00" from="-1912" to="-270"/>
    <trip id="455" depart="2168.00" from="-1072" to="1907"/>
    <trip id="456" depart="2175.00" from="-1916" to="1907"/>
    <trip id="457" depart="2182.00" from="-1912" to="315"/>
    <trip id="458" depart="2184.00" from="270" to="462"/>
    <trip id="459" depart="2191.00" from="-315" to="1907"/>
    <trip id="460" depart="2195.00" from="-1072" to="1907"/>
    <trip id="461" depart="2196.00" from="-1912" to="1912"/>
    <trip id="462" depart="2196.00" from="-1912" to="1907"/>
    <trip id="463" depart="2208.00" from="-315" to="508"/>
    <trip id="464" depart="2212.00" from="-508" to="-468"/>
    <trip id="465" depart="2212.00" from="-1072" to="462"/>
    <trip id="466" depart="2215.00" from="-1907" to="1072"/>
    <trip id="467" depart="2217.00" from="-1916" to="315"/>
    <trip id="468" depart="2218.00" from="-315" to="-270"/>
    <trip id="469" depart="2219.00" from="-1072" to="1912"/>
    <trip id="470" depart="2226.00" from="-1916" to="1916"/>
    <trip id="471" depart="2227.00" from="-1912" to="315"/>
    <trip id="472" depart="2227.00" from="270" to="508"/>
    <trip id="473" depart="2237.00" from="-508" to="1072"/>
    <trip id="474" depart="2258.00" from="-462" to="-270"/>
    <trip id="475" depart="2259.00" from="-1912" to="1448"/>
    <trip id="476" depart="2263.00" from="270" to="508"/>
    <trip id="477" depart="2264.00" from="-1072" to="1916"/>
    <trip id="478" depart="2266.00" from="-1072" to="462"/>
    <trip id="479" depart="2268.00" from="-508" to="315"/>