<?xml version="1.0" encoding="UTF-8"?>

<!-- generated on 2025-03-04 15:26:13.547599 by randomTrips.py v1_19_0+1770-8bb5c24c187
<configuration>
    <net-file value="random_subnetwork_4.net.xml"/>
    <output-trip-file value="random_subnetwork_4_light.trips.xml"/>
    <fringe-factor value="100"/>
    <remove-loops value="True"/>
    <validate value="True"/>
    <period value="3.0"/>
    <binomial value="4"/>
</configuration>
-->

<!-- generated on 2025-03-04 15:26:13 by Eclipse SUMO duarouter Version v1_19_0+1770-8bb5c24c187
<configuration xmlns:xsi="http://www.w3.org/2001/XMLSchema-instance" xsi:noNamespaceSchemaLocation="http://sumo.dlr.de/xsd/duarouterConfiguration.xsd">

    <input>
        <net-file value="random_subnetwork_4.net.xml"/>
        <route-files value="random_subnetwork_4_light.trips.xml"/>
    </input>

    <output>
        <output-file value="random_subnetwork_4_light.trips.xml.tmp"/>
        <alternatives-output value="NUL"/>
        <write-trips value="true"/>
    </output>

    <processing>
        <remove-loops value="true"/>
    </processing>

    <time>
        <begin value="0.0"/>
        <end value="3600.0"/>
    </time>

    <report>
        <no-warnings value="true"/>
        <ignore-errors value="true"/>
        <no-step-log value="true"/>
    </report>

</configuration>
-->

<routes xmlns:xsi="http://www.w3.org/2001/XMLSchema-instance" xsi:noNamespaceSchemaLocation="http://sumo.dlr.de/xsd/routes_file.xsd">
    <trip id="0" depart="0.00" from="-1072" to="1069"/>
    <trip id="1" depart="1.00" from="-1072" to="1916"/>
    <trip id="2" depart="2.00" from="-1072" to="1916"/>
    <trip id="3" depart="3.00" from="-508" to="462"/>
    <trip id="4" depart="8.00" from="-1072" to="1069"/>
    <trip id="5" depart="8.00" from="-1072" to="-307"/>
    <trip id="6" depart="13.00" from="-1072" to="1069"/>
    <trip id="7" depart="18.00" from="-1069" to="1916"/>
    <trip id="8" depart="19.00" from="-1916" to="508"/>
    <trip id="9" depart="20.00" from="-508" to="462"/>
    <trip id="10" depart="26.00" from="-1072" to="-307"/>
    <trip id="11" depart="27.00" from="307" to="508"/>
    <trip id="12" depart="28.00" from="-508" to="462"/>
    <trip id="13" depart="33.00" from="-462" to="1069"/>
    <trip id="14" depart="34.00" from="-1072" to="1918"/>
    <trip id="15" depart="41.00" from="-786" to="508"/>
    <trip id="16" depart="43.00" from="-1916" to="508"/>
    <trip id="17" depart="47.00" from="-462" to="1443"/>
    <trip id="18" depart="48.00" from="-1072" to="1916"/>
    <trip id="19" depart="53.00" from="-1916" to="-786"/>
    <trip id="20" depart="54.00" from="-1072" to="1069"/>
    <trip id="21" depart="56.00" from="-508" to="1069"/>
    <trip id="22" depart="61.00" from="-508" to="1916"/>
    <trip id="23" depart="62.00" from="-1069" to="508"/>
    <trip id="24" depart="69.00" from="-508" to="1069"/>
    <trip id="25" depart="73.00" from="-1072" to="1069"/>
    <trip id="26" depart="79.00" from="307" to="1916"/>
    <trip id="27" depart="80.00" from="-508" to="1069"/>
    <trip id="28" depart="84.00" from="-1072" to="1072"/>
    <trip id="29" depart="89.00" from="-1072" to="1072"/>
    <trip id="30" depart="89.00" from="-1916" to="1916"/>
    <trip id="31" depart="91.00" from="-508" to="462"/>
    <trip id="32" depart="92.00" from="-1072" to="508"/>
    <trip id="33" depart="98.00" from="-1072" to="1069"/>
    <trip id="34" depart="100.00" from="-1916" to="1916"/>
    <trip id="35" depart="102.00" from="-1916" to="462"/>
    <trip id="36" depart="105.00" from="-1916" to="462"/>
    <trip id="37" depart="106.00" from="-1916" to="1916"/>
    <trip id="38" depart="107.00" from="-462" to="-307"/>
    <trip id="39" depart="107.00" from="-1916" to="1069"/>
    <trip id="40" depart="109.00" from="-1069" to="1916"/>
    <trip id="41" depart="111.00" from="-1069" to="-307"/>
    <trip id="42" depart="114.00" from="-1072" to="462"/>
    <trip id="43" depart="115.00" from="-508" to="1916"/>
    <trip id="44" depart="125.00" from="307" to="1069"/>
    <trip id="45" depart="127.00" from="307" to="-307"/>
    <trip id="46" depart="136.00" from="-462" to="1069"/>
    <trip id="47" depart="139.00" from="307" to="1072"/>
    <trip id="48" depart="140.00" from="-462" to="-307"/>
    <trip id="49" depart="146.00" from="-1069" to="1072"/>
    <trip id="50" depart="150.00" from="-1072" to="1069"/>
    <trip id="51" depart="153.00" from="-1069" to="1072"/>
    <trip id="52" depart="156.00" from="-508" to="1072"/>
    <trip id="53" depart="177.00" from="-508" to="462"/>
    <trip id="54" depart="179.00" from="-462" to="1916"/>
    <trip id="55" depart="185.00" from="-1069" to="1916"/>
    <trip id="56" depart="188.00" from="-508" to="1069"/>
    <trip id="57" depart="189.00" from="307" to="1916"/>
    <trip id="58" depart="191.00" from="-508" to="508"/>
    <trip id="59" depart="197.00" from="-462" to="1072"/>
    <trip id="60" depart="209.00" from="-462" to="1072"/>
    <trip id="61" depart="211.00" from="307" to="1916"/>
    <trip id="62" depart="211.00" from="-508" to="508"/>
    <trip id="63" depart="217.00" from="-1916" to="1072"/>
    <trip id="64" depart="221.00" from="-508" to="1069"/>
    <trip id="65" depart="222.00" from="-508" to="1069"/>
    <trip id="66" depart="223.00" from="307" to="-307"/>
    <trip id="67" depart="224.00" from="-1069" to="462"/>
    <trip id="68" depart="225.00" from="-508" to="1916"/>
    <trip id="69" depart="227.00" from="-508" to="508"/>
    <trip id="70" depart="228.00" from="-1916" to="1072"/>
    <trip id="71" depart="229.00" from="-1069" to="1916"/>
    <trip id="72" depart="230.00" from="-1072" to="1916"/>
    <trip id="73" depart="236.00" from="1918" to="-307"/>
    <trip id="74" depart="244.00" from="307" to="462"/>
    <trip id="75" depart="245.00" from="307" to="1916"/>
    <trip id="76" depart="246.00" from="-508" to="1069"/>
    <trip id="77" depart="248.00" from="-1069" to="1916"/>
    <trip id="78" depart="252.00" from="-1916" to="1916"/>
    <trip id="79" depart="252.00" from="-1072" to="1069"/>
    <trip id="80" depart="253.00" from="-508" to="1069"/>
    <trip id="81" depart="255.00" from="307" to="-307"/>
    <trip id="82" depart="255.00" from="307" to="508"/>
    <trip id="83" depart="256.00" from="-1072" to="462"/>
    <trip id="84" depart="267.00" from="-1916" to="1069"/>
    <trip id="85" depart="267.00" from="-462" to="1069"/>
    <trip id="86" depart="268.00" from="1918" to="-307"/>
    <trip id="87" depart="271.00" from="-1069" to="508"/>
    <trip id="88" depart="276.00" from="-1069" to="462"/>
    <trip id="89" depart="284.00" from="307" to="-307"/>
    <trip id="90" depart="285.00" from="-1916" to="462"/>
    <trip id="91" depart="297.00" from="-1069" to="1443"/>
    <trip id="92" depart="298.00" from="307" to="508"/>
    <trip id="93" depart="301.00" from="-1069" to="1069"/>
    <trip id="94" depart="303.00" from="-1916" to="462"/>
    <trip id="95" depart="304.00" from="-462" to="1069"/>
    <trip id="96" depart="306.00" from="-462" to="1916"/>
    <trip id="97" depart="308.00" from="-508" to="1072"/>
    <trip id="98" depart="310.00" from="-462" to="462"/>
    <trip id="99" depart="312.00" from="-508" to="1072"/>
    <trip id="100" depart="312.00" from="-1072" to="-307"/>
    <trip id="101" depart="318.00" from="-462" to="462"/>
    <trip id="102" depart="319.00" from="-470" to="1069"/>
    <trip id="103" depart="320.00" from="307" to="1072"/>
    <trip id="104" depart="322.00" from="-462" to="1072"/>
    <trip id="105" depart="323.00" from="-1069" to="462"/>
    <trip id="106" depart="332.00" from="-462" to="508"/>
    <trip id="107" depart="335.00" from="-462" to="1072"/>
    <trip id="108" depart="338.00" from="307" to="1916"/>
    <trip id="109" depart="341.00" from="-1069" to="-307"/>
    <trip id="110" depart="347.00" from="-1069" to="1916"/>
    <trip id="111" depart="350.00" from="-1069" to="1072"/>
    <trip id="112" depart="358.00" from="307" to="1916"/>
    <trip id="113" depart="359.00" from="-1918" to="508"/>
    <trip id="114" depart="362.00" from="-462" to="462"/>
    <trip id="115" depart="366.00" from="-1069" to="1069"/>
    <trip id="116" depart="372.00" from="-1916" to="508"/>
    <trip id="117" depart="375.00" from="307" to="-307"/>
    <trip id="118" depart="375.00" from="-1072" to="-307"/>
    <trip id="119" depart="377.00" from="-1069" to="1069"/>
    <trip id="120" depart="390.00" from="-1916" to="462"/>
    <trip id="121" depart="391.00" from="-462" to="508"/>
    <trip id="122" depart="398.00" from="-462" to="-307"/>
    <trip id="123" depart="407.00" from="-462" to="462"/>
    <trip id="124" depart="407.00" from="-1069" to="1069"/>
    <trip id="125" depart="413.00" from="-1916" to="462"/>
    <trip id="126" depart="413.00" from="-462" to="-307"/>
    <trip id="127" depart="417.00" from="-1916" to="462"/>
    <trip id="128" depart="419.00" from="-1916" to="-307"/>
    <trip id="129" depart="419.00" from="307" to="-307"/>
    <trip id="130" depart="425.00" from="-1069" to="1069"/>
    <trip id="131" depart="429.00" from="-1072" to="-307"/>
    <trip id="132" depart="429.00" from="-462" to="462"/>
    <trip id="133" depart="429.00" from="-508" to="1072"/>
    <trip id="134" depart="430.00" from="-462" to="1069"/>
    <trip id="135" depart="433.00" from="307" to="508"/>
    <trip id="136" depart="444.00" from="307" to="508"/>
    <trip id="137" depart="457.00" from="-1069" to="508"/>
    <trip id="138" depart="459.00" from="-462" to="1072"/>
    <trip id="139" depart="460.00" from="-462" to="-307"/>
    <trip id="140" depart="461.00" from="-508" to="462"/>
    <trip id="141" depart="467.00" from="-1069" to="470"/>
    <trip id="142" depart="469.00" from="-1072" to="508"/>
    <trip id="143" depart="470.00" from="-1069" to="508"/>
    <trip id="144" depart="471.00" from="307" to="1069"/>
    <trip id="145" depart="472.00" from="-1069" to="1069"/>
    <trip id="146" depart="475.00" from="-1916" to="508"/>
    <trip id="147" depart="476.00" from="-1072" to="508"/>
    <trip id="148" depart="479.00" from="-1069" to="462"/>
    <trip id="149" depart="480.00" from="-1072" to="1072"/>
    <trip id="150" depart="482.00" from="-1916" to="-307"/>
    <trip id="151" depart="486.00" from="-1916" to="1072"/>
    <trip id="152" depart="487.00" from="-1072" to="1069"/>
    <trip id="153" depart="499.00" from="307" to="1072"/>
    <trip id="154" depart="503.00" from="307" to="462"/>
    <trip id="155" depart="505.00" from="-1072" to="1916"/>
    <trip id="156" depart="507.00" from="-1069" to="1072"/>
    <trip id="157" depart="515.00" from="-462" to="1069"/>
    <trip id="158" depart="517.00" from="-1069" to="508"/>
    <trip id="159" depart="526.00" from="-1916" to="-307"/>
    <trip id="160" depart="529.00" from="-1069" to="462"/>
    <trip id="161" depart="532.00" from="-508" to="1916"/>
    <trip id="162" depart="538.00" from="-1916" to="1069"/>
    <trip id="163" depart="547.00" from="-508" to="462"/>
    <trip id="164" depart="548.00" from="-462" to="1069"/>
    <trip id="165" depart="551.00" from="-1069" to="462"/>
    <trip id="166" depart="552.00" from="307" to="1069"/>
    <trip id="167" depart="557.00" from="-1916" to="-307"/>
    <trip id="168" depart="558.00" from="-508" to="462"/>
    <trip id="169" depart="559.00" from="-1916" to="462"/>
    <trip id="170" depart="561.00" from="-462" to="1072"/>
    <trip id="171" depart="569.00" from="307" to="508"/>
    <trip id="172" depart="573.00" from="-1069" to="1069"/>
    <trip id="173" depart="573.00" from="-1069" to="462"/>
    <trip id="174" depart="575.00" from="-462" to="1916"/>
    <trip id="175" depart="577.00" from="-508" to="462"/>
    <trip id="176" depart="578.00" from="-1069" to="1072"/>
    <trip id="177" depart="583.00" from="-508" to="1069"/>
    <trip id="178" depart="583.00" from="-508" to="1916"/>
    <trip id="179" depart="583.00" from="-1916" to="1072"/>
    <trip id="180" depart="586.00" from="307" to="1069"/>
    <trip id="181" depart="589.00" from="-1916" to="1443"/>
    <trip id="182" depart="591.00" from="-1916" to="1069"/>
    <trip id="183" depart="592.00" from="-1072" to="1916"/>
    <trip id="184" depart="595.00" from="-1916" to="1069"/>
    <trip id="185" depart="596.00" from="-462" to="508"/>
    <trip id="186" depart="597.00" from="-470" to="462"/>
    <trip id="187" depart="600.00" from="-462" to="1072"/>
    <trip id="188" depart="603.00" from="-1072" to="462"/>
    <trip id="189" depart="607.00" from="307" to="1069"/>
    <trip id="190" depart="609.00" from="-1916" to="1072"/>
    <trip id="191" depart="610.00" from="-786" to="508"/>
    <trip id="192" depart="613.00" from="-1069" to="508"/>
    <trip id="193" depart="614.00" from="-1916" to="-307"/>
    <trip id="194" depart="615.00" from="-508" to="786"/>
    <trip id="195" depart="616.00" from="-462" to="1069"/>
    <trip id="196" depart="617.00" from="-1072" to="-307"/>
    <trip id="197" depart="622.00" from="307" to="1916"/>
    <trip id="198" depart="625.00" from="468" to="1069"/>
    <trip id="199" depart="627.00" from="-508" to="508"/>
    <trip id="200" depart="631.00" from="307" to="1069"/>
    <trip id="201" depart="632.00" from="-462" to="508"/>
    <trip id="202" depart="640.00" from="-462" to="508"/>
    <trip id="203" depart="645.00" from="-1072" to="-307"/>
    <trip id="204" depart="645.00" from="-1916" to="462"/>
    <trip id="205" depart="648.00" from="307" to="1069"/>
    <trip id="206" depart="649.00" from="-1072" to="1072"/>
    <trip id="207" depart="651.00" from="307" to="-307"/>
    <trip id="208" depart="654.00" from="-462" to="508"/>
    <trip id="209" depart="656.00" from="-1072" to="1069"/>
    <trip id="210" depart="656.00" from="307" to="1069"/>
    <trip id="211" depart="660.00" from="-508" to="1916"/>
    <trip id="212" depart="663.00" from="307" to="462"/>
    <trip id="213" depart="669.00" from="-1916" to="1072"/>
    <trip id="214" depart="675.00" from="-1072" to="-307"/>
    <trip id="215" depart="676.00" from="307" to="1069"/>
    <trip id="216" depart="677.00" from="-508" to="1069"/>
    <trip id="217" depart="684.00" from="-1072" to="468"/>
    <trip id="218" depart="686.00" from="-1916" to="1916"/>
    <trip id="219" depart="691.00" from="-508" to="462"/>
    <trip id="220" depart="691.00" from="307" to="1916"/>
    <trip id="221" depart="692.00" from="-1072" to="462"/>
    <trip id="222" depart="697.00" from="307" to="1916"/>
    <trip id="223" depart="702.00" from="-508" to="1916"/>
    <trip id="224" depart="711.00" from="307" to="1439"/>
    <trip id="225" depart="712.00" from="307" to="-307"/>
    <trip id="226" depart="715.00" from="-1072" to="462"/>
    <trip id="227" depart="718.00" from="-1072" to="1072"/>
    <trip id="228" depart="718.00" from="-1072" to="468"/>
    <trip id="229" depart="726.00" from="307" to="1069"/>
    <trip id="230" depart="727.00" from="307" to="1916"/>
    <trip id="231" depart="727.00" from="-508" to="1072"/>
    <trip id="232" depart="734.00" from="-462" to="1069"/>
    <trip id="233" depart="735.00" from="-508" to="508"/>
    <trip id="234" depart="738.00" from="-1072" to="462"/>
    <trip id="235" depart="740.00" from="307" to="1916"/>
    <trip id="236" depart="744.00" from="307" to="-307"/>
    <trip id="237" depart="746.00" from="-508" to="508"/>
    <trip id="238" depart="748.00" from="-1072" to="1069"/>
    <trip id="239" depart="753.00" from="-462" to="-307"/>
    <trip id="240" depart="754.00" from="-1916" to="1069"/>
    <trip id="241" depart="754.00" from="-1072" to="1916"/>
    <trip id="242" depart="758.00" from="-1069" to="1916"/>
    <trip id="243" depart="760.00" from="-1072" to="1072"/>
    <trip id="244" depart="764.00" from="-1072" to="-307"/>
    <trip id="245" depart="769.00" from="307" to="508"/>
    <trip id="246" depart="783.00" from="-1069" to="462"/>
    <trip id="247" depart="785.00" from="-508" to="-307"/>
    <trip id="248" depart="789.00" from="-1072" to="1916"/>
    <trip id="249" depart="797.00" from="307" to="1916"/>
    <trip id="250" depart="799.00" from="-462" to="1072"/>
    <trip id="251" depart="802.00" from="-508" to="1072"/>
    <trip id="252" depart="806.00" from="307" to="1069"/>
    <trip id="253" depart="808.00" from="-1069" to="462"/>
    <trip id="254" depart="812.00" from="-508" to="1916"/>
    <trip id="255" depart="814.00" from="-508" to="1916"/>
    <trip id="256" depart="815.00" from="307" to="-307"/>
    <trip id="257" depart="821.00" from="-462" to="1916"/>
    <trip id="258" depart="827.00" from="-1069" to="462"/>
    <trip id="259" depart="831.00" from="-1072" to="1069"/>
    <trip id="260" depart="836.00" from="-1069" to="-307"/>
    <trip id="261" depart="836.00" from="-462" to="1072"/>
    <trip id="262" depart="845.00" from="-1916" to="-307"/>
    <trip id="263" depart="846.00" from="307" to="1069"/>
    <trip id="264" depart="852.00" from="-462" to="1069"/>
    <trip id="265" depart="855.00" from="-1069" to="1916"/>
    <trip id="266" depart="856.00" from="-462" to="-307"/>
    <trip id="267" depart="858.00" from="-508" to="1916"/>
    <trip id="268" depart="865.00" from="-508" to="1448"/>
    <trip id="269" depart="868.00" from="-462" to="1069"/>
    <trip id="270" depart="873.00" from="-462" to="462"/>
    <trip id="271" depart="882.00" from="-1069" to="-307"/>
    <trip id="272" depart="883.00" from="-1072" to="-307"/>
    <trip id="273" depart="883.00" from="-1916" to="508"/>
    <trip id="274" depart="886.00" from="-462" to="1916"/>
    <trip id="275" depart="887.00" from="-1072" to="1439"/>
    <trip id="276" depart="889.00" from="-1069" to="1069"/>
    <trip id="277" depart="892.00" from="-1072" to="508"/>
    <trip id="278" depart="896.00" from="-1069" to="-307"/>
    <trip id="279" depart="898.00" from="1918" to="1069"/>
    <trip id="280" depart="899.00" from="307" to="1072"/>
    <trip id="281" depart="905.00" from="-1916" to="1916"/>
    <trip id="282" depart="908.00" from="-508" to="1072"/>
    <trip id="283" depart="910.00" from="-1072" to="1916"/>
    <trip id="284" depart="920.00" from="-508" to="1072"/>
    <trip id="285" depart="922.00" from="-1069" to="508"/>
    <trip id="286" depart="928.00" from="-1069" to="1069"/>
    <trip id="287" depart="931.00" from="-508" to="1916"/>
    <trip id="288" depart="932.00" from="-1072" to="-307"/>
    <trip id="289" depart="932.00" from="307" to="1916"/>
    <trip id="290" depart="932.00" from="-1916" to="462"/>
    <trip id="291" depart="932.00" from="-1072" to="-307"/>
    <trip id="292" depart="935.00" from="-508" to="508"/>
    <trip id="293" depart="941.00" from="-508" to="508"/>
    <trip id="294" depart="941.00" from="307" to="508"/>
    <trip id="295" depart="942.00" from="-1916" to="1069"/>
    <trip id="296" depart="942.00" from="-1916" to="1072"/>
    <trip id="297" depart="949.00" from="-1069" to="1916"/>
    <trip id="298" depart="953.00" from="-508" to="-307"/>
    <trip id="299" depart="956.00" from="-1916" to="462"/>
    <trip id="300" depart="958.00" from="307" to="1916"/>
    <trip id="301" depart="962.00" from="-1069" to="462"/>
    <trip id="302" depart="965.00" from="-462" to="462"/>
    <trip id="303" depart="971.00" from="-1069" to="1069"/>
    <trip id="304" depart="972.00" from="-462" to="1072"/>
    <trip id="305" depart="972.00" from="307" to="462"/>
    <trip id="306" depart="976.00" from="307" to="-307"/>
    <trip id="307" depart="979.00" from="307" to="1069"/>
    <trip id="308" depart="980.00" from="-508" to="-307"/>
    <trip id="309" depart="982.00" from="-1069" to="1069"/>
    <trip id="310" depart="995.00" from="-508" to="462"/>
    <trip id="311" depart="996.00" from="-1916" to="-307"/>
    <trip id="312" depart="1001.00" from="-1069" to="462"/>
    <trip id="313" depart="1004.00" from="-508" to="1072"/>
    <trip id="314" depart="1004.00" from="-462" to="-307"/>
    <trip id="315" depart="1005.00" from="-508" to="1072"/>
    <trip id="316" depart="1007.00" from="-462" to="-307"/>
    <trip id="317" depart="1010.00" from="-508" to="1069"/>
    <trip id="318" depart="1012.00" from="-1072" to="508"/>
    <trip id="319" depart="1014.00" from="-508" to="1069"/>
    <trip id="320" depart="1015.00" from="307" to="508"/>
    <trip id="321" depart="1016.00" from="-508" to="-307"/>
    <trip id="322" depart="1016.00" from="-1072" to="1916"/>
    <trip id="323" depart="1018.00" from="-462" to="1916"/>
    <trip id="324" depart="1018.00" from="-1072" to="1069"/>
    <trip id="325" depart="1019.00" from="-462" to="-307"/>
    <trip id="326" depart="1021.00" from="307" to="1916"/>
    <trip id="327" depart="1024.00" from="-1072" to="1916"/>
    <trip id="328" depart="1027.00" from="-462" to="1069"/>
    <trip id="329" depart="1044.00" from="-508" to="-307"/>
    <trip id="330" depart="1046.00" from="307" to="508"/>
    <trip id="331" depart="1047.00" from="-508" to="1072"/>
    <trip id="332" depart="1050.00" from="-468" to="1916"/>
    <trip id="333" depart="1052.00" from="-1072" to="1072"/>
    <trip id="334" depart="1053.00" from="-462" to="-307"/>
    <trip id="335" depart="1066.00" from="307" to="1069"/>
    <trip id="336" depart="1067.00" from="-462" to="1069"/>
    <trip id="337" depart="1069.00" from="-1069" to="1916"/>
    <trip id="338" depart="1069.00" from="307" to="1916"/>
    <trip id="339" depart="1070.00" from="-1916" to="1069"/>
    <trip id="340" depart="1073.00" from="-1916" to="1916"/>
    <trip id="341" depart="1081.00" from="-1069" to="1916"/>
    <trip id="342" depart="1084.00" from="-1072" to="1069"/>
    <trip id="343" depart="1085.00" from="-508" to="1072"/>
    <trip id="344" depart="1086.00" from="-1072" to="1069"/>
    <trip id="345" depart="1092.00" from="307" to="1916"/>
    <trip id="346" depart="1094.00" from="-1916" to="1072"/>
    <trip id="347" depart="1097.00" from="-1916" to="-1439"/>
    <trip id="348" depart="1101.00" from="307" to="462"/>
    <trip id="349" depart="1102.00" from="-462" to="1916"/>
    <trip id="350" depart="1105.00" from="-462" to="1916"/>
    <trip id="351" depart="1107.00" from="-462" to="1072"/>
    <trip id="352" depart="1109.00" from="-1916" to="1069"/>
    <trip id="353" depart="1117.00" from="-1916" to="1072"/>
    <trip id="354" depart="1124.00" from="307" to="1916"/>
    <trip id="355" depart="1126.00" from="-1069" to="462"/>
    <trip id="356" depart="1129.00" from="-1069" to="-307"/>
    <trip id="357" depart="1132.00" from="307" to="1072"/>
    <trip id="358" depart="1134.00" from="-508" to="462"/>
    <trip id="359" depart="1139.00" from="-1069" to="462"/>
    <trip id="360" depart="1148.00" from="307" to="-307"/>
    <trip id="361" depart="1149.00" from="-462" to="462"/>
    <trip id="362" depart="1150.00" from="-1916" to="462"/>
    <trip id="363" depart="1152.00" from="307" to="462"/>
    <trip id="364" depart="1153.00" from="-1916" to="-307"/>
    <trip id="365" depart="1153.00" from="307" to="462"/>
    <trip id="366" depart="1154.00" from="-462" to="508"/>
    <trip id="367" depart="1155.00" from="-1069" to="1069"/>
    <trip id="368" depart="1164.00" from="307" to="1072"/>
    <trip id="369" depart="1165.00" from="307" to="1916"/>
    <trip id="370" depart="1171.00" from="-1069" to="-307"/>
    <trip id="371" depart="1172.00" from="-1069" to="508"/>
    <trip id="372" depart="1178.00" from="-508" to="1072"/>
    <trip id="373" depart="1179.00" from="307" to="1069"/>
    <trip id="374" depart="1182.00" from="-462" to="1069"/>
    <trip id="375" depart="1187.00" from="307" to="462"/>
    <trip id="376" depart="1190.00" from="-1916" to="462"/>
    <trip id="377" depart="1191.00" from="-1916" to="1069"/>
    <trip id="378" depart="1194.00" from="-462" to="1069"/>
    <trip id="379" depart="1195.00" from="-1069" to="462"/>
    <trip id="380" depart="1196.00" from="-1069" to="462"/>
    <trip id="381" depart="1198.00" from="-1069" to="1916"/>
    <trip id="382" depart="1198.00" from="-508" to="-307"/>
    <trip id="383" depart="1199.00" from="-1072" to="462"/>
    <trip id="384" depart="1206.00" from="-1069" to="508"/>
    <trip id="385" depart="1207.00" from="-1916" to="-1918"/>
    <trip id="386" depart="1211.00" from="-1072" to="1072"/>
    <trip id="387" depart="1212.00" from="-1072" to="-307"/>
    <trip id="388" depart="1216.00" from="-462" to="1069"/>
    <trip id="389" depart="1218.00" from="-508" to="508"/>
    <trip id="390" depart="1226.00" from="-1069" to="508"/>
    <trip id="391" depart="1233.00" from="307" to="-307"/>
    <trip id="392" depart="1234.00" from="-462" to="1072"/>
    <trip id="393" depart="1235.00" from="-508" to="508"/>
    <trip id="394" depart="1238.00" from="-1916" to="462"/>
    <trip id="395" depart="1240.00" from="307" to="1069"/>
    <trip id="396" depart="1240.00" from="-1916" to="1069"/>
    <trip id="397" depart="1241.00" from="307" to="462"/>
    <trip id="398" depart="1241.00" from="307" to="462"/>
    <trip id="399" depart="1243.00" from="-508" to="1069"/>
    <trip id="400" depart="1247.00" from="-1916" to="1072"/>
    <trip id="401" depart="1250.00" from="307" to="1072"/>
    <trip id="402" depart="1250.00" from="307" to="1069"/>
    <trip id="403" depart="1255.00" from="307" to="1069"/>
    <trip id="404" depart="1259.00" from="-1916" to="1072"/>
    <trip id="405" depart="1262.00" from="-1072" to="-307"/>
    <trip id="406" depart="1263.00" from="-1072" to="1072"/>
    <trip id="407" depart="1266.00" from="-508" to="508"/>
    <trip id="408" depart="1271.00" from="-462" to="1916"/>
    <trip id="409" depart="1272.00" from="-462" to="1072"/>
    <trip id="410" depart="1281.00" from="307" to="462"/>
    <trip id="411" depart="1284.00" from="-1439" to="-470"/>
    <trip id="412" depart="1285.00" from="-1069" to="1069"/>
    <trip id="413" depart="1288.00" from="-508" to="1916"/>
    <trip id="414" depart="1291.00" from="-1072" to="508"/>
    <trip id="415" depart="1297.00" from="-462" to="1072"/>
    <trip id="416" depart="1302.00" from="-508" to="508"/>
    <trip id="417" depart="1304.00" from="-508" to="1069"/>
    <trip id="418" depart="1306.00" from="-508" to="462"/>
    <trip id="419" depart="1306.00" from="-508" to="462"/>
    <trip id="420" depart="1306.00" from="-1069" to="462"/>
    <trip id="421" depart="1307.00" from="-1069" to="1069"/>
    <trip id="422" depart="1307.00" from="-508" to="462"/>
    <trip id="423" depart="1312.00" from="-1072" to="1069"/>
    <trip id="424" depart="1318.00" from="-1443" to="-307"/>
    <trip id="425" depart="1321.00" from="307" to="1072"/>
    <trip id="426" depart="1324.00" from="307" to="1072"/>
    <trip id="427" depart="1331.00" from="-1069" to="462"/>
    <trip id="428" depart="1332.00" from="-508" to="462"/>
    <trip id="429" depart="1335.00" from="-1916" to="508"/>
    <trip id="430" depart="1336.00" from="-462" to="508"/>
    <trip id="431" depart="1342.00" from="-1069" to="508"/>
    <trip id="432" depart="1342.00" from="307" to="1072"/>
    <trip id="433" depart="1345.00" from="-1072" to="1072"/>
    <trip id="434" depart="1345.00" from="-1439" to="1072"/>
    <trip id="435" depart="1352.00" from="-468" to="1072"/>
    <trip id="436" depart="1354.00" from="-508" to="1072"/>
    <trip id="437" depart="1357.00" from="-508" to="508"/>
    <trip id="438" depart="1363.00" from="-1072" to="1072"/>
    <trip id="439" depart="1366.00" from="-1069" to="-307"/>
    <trip id="440" depart="1368.00" from="307" to="-307"/>
    <trip id="441" depart="1380.00" from="307" to="1916"/>
    <trip id="442" depart="1387.00" from="307" to="462"/>
    <trip id="443" depart="1391.00" from="-1069" to="1916"/>
    <trip id="444" depart="1393.00" from="-1069" to="1916"/>
    <trip id="445" depart="1409.00" from="-1069" to="1069"/>
    <trip id="446" depart="1411.00" from="-1916" to="1069"/>
    <trip id="447" depart="1413.00" from="-1072" to="1916"/>
    <trip id="448" depart="1417.00" from="-1069" to="508"/>
    <trip id="449" depart="1422.00" from="-1069" to="1069"/>
    <trip id="450" depart="1422.00" from="-1072" to="462"/>
    <trip id="451" depart="1423.00" from="-1916" to="462"/>
    <trip id="452" depart="1428.00" from="-508" to="462"/>
    <trip id="453" depart="1428.00" from="-508" to="462"/>
    <trip id="454" depart="1430.00" from="1918" to="1916"/>
    <trip id="455" depart="1431.00" from="307" to="1916"/>
    <trip id="456" depart="1433.00" from="-462" to="1069"/>
    <trip id="457" depart="1433.00" from="-1069" to="508"/>
    <trip id="458" depart="1441.00" from="-1916" to="1072"/>
    <trip id="459" depart="1445.00" from="-1069" to="-307"/>
    <trip id="460" depart="1447.00" from="-462" to="-307"/>
    <trip id="461" depart="1449.00" from="307" to="1069"/>
    <trip id="462" depart="1452.00" from="-1069" to="470"/>
    <trip id="463" depart="1456.00" from="-1069" to="-307"/>
    <trip id="464" depart="1459.00" from="-1072" to="-307"/>
    <trip id="465" depart="1462.00" from="-1069" to="1916"/>
    <trip id="466" depart="1466.00" from="307" to="1072"/>
    <trip id="467" depart="1468.00" from="-1072" to="1069"/>
    <trip id="468" depart="1476.00" from="-1069" to="508"/>
    <trip id="469" depart="1477.00" from="-1069" to="1072"/>
    <trip id="470" depart="1479.00" from="307" to="1069"/>
    <trip id="471" depart="1483.00" from="-1069" to="1916"/>
    <trip id="472" depart="1492.00" from="-1069" to="-307"/>
    <trip id="473" depart="1493.00" from="-508" to="1916"/>
    <trip id="474" depart="1494.00" from="-462" to="462"/>
    <trip id="475" depart="1497.00" from="-1072" to="1916"/>
    <trip id="476" depart="1500.00" from="-1916" to="462"/>
    <trip id="477" depart="1503.00" from="-508" to="1916"/>
    <trip id="478" depart="1504.00" from="-1916" to="1916"/>
    <trip id="479" depart="1505.00" from="-462" to="-307"/>
    <trip id="480" depart="1511.00" from="-1069" to="508"/>
    <trip id="481" depart="1520.00" from="-1069" to="1072"/>
    <trip id="482" depart="1521.00" from="307" to="508"/>