<?xml version="1.0" encoding="UTF-8"?>

<!-- generated on 2025-03-19 08:53:38.085852 by randomTrips.py v1_22_0+0449-9311ec3459f
<configuration>
    <net-file value="random_subnetwork_3.net.xml"/>
    <output-trip-file value="random_subnetwork_3_medium.trips.xml"/>
    <fringe-factor value="100"/>
    <min-distance value="600.0"/>
    <remove-loops value="True"/>
    <validate value="True"/>
    <period value="2.25"/>
    <random-depart value="True"/>
    <binomial value="10"/>
</configuration>
-->

<!-- generated on 2025-03-19 08:53:38 by Eclipse SUMO duarouter Version v1_22_0+0449-9311ec3459f
<duarouterConfiguration xmlns:xsi="http://www.w3.org/2001/XMLSchema-instance" xsi:noNamespaceSchemaLocation="http://sumo.dlr.de/xsd/duarouterConfiguration.xsd">

    <input>
        <net-file value="random_subnetwork_3.net.xml"/>
        <route-files value="random_subnetwork_3_medium.trips.xml"/>
    </input>

    <output>
        <output-file value="random_subnetwork_3_medium.trips.xml.tmp"/>
        <alternatives-output value="NUL"/>
        <write-trips value="true"/>
    </output>

    <processing>
        <remove-loops value="true"/>
    </processing>

    <time>
        <begin value="0.0"/>
        <end value="3600.0"/>
    </time>

    <report>
        <no-warnings value="true"/>
        <ignore-errors value="true"/>
        <no-step-log value="true"/>
    </report>

</duarouterConfiguration>
-->

<routes xmlns:xsi="http://www.w3.org/2001/XMLSchema-instance" xsi:noNamespaceSchemaLocation="http://sumo.dlr.de/xsd/routes_file.xsd">
    <trip id="0" depart="0.00" from="-1799" to="-353"/>
    <trip id="1" depart="0.00" from="353" to="1799"/>
    <trip id="2" depart="4.00" from="353" to="1799"/>
    <trip id="3" depart="7.00" from="353" to="1799"/>
    <trip id="4" depart="8.00" from="353" to="1799"/>
    <trip id="5" depart="22.00" from="353" to="1799"/>
    <trip id="6" depart="24.00" from="-1799" to="-353"/>
    <trip id="7" depart="26.00" from="353" to="1799"/>
    <trip id="8" depart="27.00" from="-1799" to="-353"/>
    <trip id="9" depart="28.00" from="-1799" to="-353"/>
    <trip id="10" depart="28.00" from="353" to="1799"/>
    <trip id="11" depart="28.00" from="-1799" to="-353"/>
    <trip id="12" depart="30.00" from="353" to="1799"/>
    <trip id="13" depart="34.00" from="-1799" to="-353"/>
    <trip id="14" depart="37.00" from="353" to="1799"/>
    <trip id="15" depart="41.00" from="353" to="1799"/>
    <trip id="16" depart="43.00" from="353" to="1799"/>
    <trip id="17" depart="51.00" from="353" to="1799"/>
    <trip id="18" depart="52.00" from="353" to="1799"/>
    <trip id="19" depart="53.00" from="353" to="1799"/>
    <trip id="20" depart="55.00" from="353" to="1799"/>
    <trip id="21" depart="59.00" from="-1799" to="-353"/>
    <trip id="22" depart="62.00" from="-1799" to="-353"/>
    <trip id="23" depart="63.00" from="-1799" to="-353"/>
    <trip id="24" depart="63.00" from="-1799" to="-353"/>
    <trip id="25" depart="65.00" from="-1799" to="-353"/>
    <trip id="26" depart="67.00" from="-1799" to="-353"/>
    <trip id="27" depart="77.00" from="353" to="1799"/>
    <trip id="28" depart="80.00" from="-1799" to="-353"/>
    <trip id="29" depart="81.00" from="353" to="1799"/>
    <trip id="30" depart="82.00" from="-1799" to="-353"/>
    <trip id="31" depart="82.00" from="-1799" to="-353"/>
    <trip id="32" depart="87.00" from="353" to="1799"/>
    <trip id="33" depart="90.00" from="353" to="1799"/>
    <trip id="34" depart="94.00" from="353" to="1799"/>
    <trip id="35" depart="98.00" from="-1799" to="-353"/>
    <trip id="36" depart="103.00" from="353" to="1799"/>
    <trip id="37" depart="106.00" from="353" to="1799"/>
    <trip id="38" depart="109.00" from="-1799" to="-353"/>
    <trip id="39" depart="115.00" from="353" to="1799"/>
    <trip id="40" depart="117.00" from="353" to="1799"/>
    <trip id="41" depart="117.00" from="-1799" to="-353"/>
    <trip id="42" depart="117.00" from="353" to="1799"/>
    <trip id="43" depart="121.00" from="353" to="1799"/>
    <trip id="44" depart="125.00" from="-1799" to="-353"/>
    <trip id="45" depart="127.00" from="-1799" to="-353"/>
    <trip id="46" depart="128.00" from="353" to="1799"/>
    <trip id="47" depart="130.00" from="353" to="1799"/>
    <trip id="48" depart="132.00" from="353" to="1799"/>
    <trip id="49" depart="138.00" from="353" to="1799"/>
    <trip id="50" depart="138.00" from="-1799" to="-353"/>
    <trip id="51" depart="139.00" from="-1799" to="-353"/>
    <trip id="52" depart="143.00" from="-1799" to="-353"/>
    <trip id="53" depart="143.00" from="353" to="1799"/>
    <trip id="54" depart="149.00" from="353" to="1799"/>
    <trip id="55" depart="150.00" from="353" to="1799"/>
    <trip id="56" depart="151.00" from="-1799" to="-353"/>
    <trip id="57" depart="155.00" from="-1799" to="-353"/>
    <trip id="58" depart="160.00" from="353" to="1799"/>
    <trip id="59" depart="161.00" from="353" to="1799"/>
    <trip id="60" depart="161.00" from="-1799" to="-353"/>
    <trip id="61" depart="165.00" from="353" to="1799"/>
    <trip id="62" depart="165.00" from="-1799" to="-353"/>
    <trip id="63" depart="167.00" from="-1799" to="-353"/>
    <trip id="64" depart="167.00" from="353" to="1799"/>
    <trip id="65" depart="168.00" from="353" to="1799"/>
    <trip id="66" depart="168.00" from="353" to="1799"/>
    <trip id="67" depart="169.00" from="353" to="1799"/>
    <trip id="68" depart="171.00" from="-1799" to="-353"/>
    <trip id="69" depart="173.00" from="353" to="1799"/>
    <trip id="70" depart="178.00" from="353" to="1799"/>
    <trip id="71" depart="181.00" from="353" to="1799"/>
    <trip id="72" depart="185.00" from="-1799" to="-353"/>
    <trip id="73" depart="189.00" from="353" to="1799"/>
    <trip id="74" depart="190.00" from="353" to="1799"/>
    <trip id="75" depart="191.00" from="353" to="1799"/>
    <trip id="76" depart="192.00" from="-1799" to="-353"/>
    <trip id="77" depart="192.00" from="353" to="1799"/>
    <trip id="78" depart="193.00" from="-1799" to="-353"/>
    <trip id="79" depart="194.00" from="353" to="1799"/>
    <trip id="80" depart="195.00" from="353" to="1799"/>
    <trip id="81" depart="204.00" from="353" to="1799"/>
    <trip id="82" depart="204.00" from="353" to="1799"/>
    <trip id="83" depart="209.00" from="353" to="1799"/>
    <trip id="84" depart="209.00" from="-1799" to="-353"/>
    <trip id="85" depart="210.00" from="353" to="1799"/>
    <trip id="86" depart="212.00" from="353" to="1799"/>
    <trip id="87" depart="216.00" from="-1799" to="-353"/>
    <trip id="88" depart="218.00" from="353" to="1799"/>
    <trip id="89" depart="221.00" from="353" to="1799"/>
    <trip id="90" depart="225.00" from="-1799" to="-353"/>
    <trip id="91" depart="225.00" from="353" to="1799"/>
    <trip id="92" depart="227.00" from="353" to="1799"/>
    <trip id="93" depart="230.00" from="-1799" to="-353"/>
    <trip id="94" depart="230.00" from="353" to="1799"/>
    <trip id="95" depart="230.00" from="-1799" to="-353"/>
    <trip id="96" depart="230.00" from="-1799" to="-353"/>
    <trip id="97" depart="235.00" from="-1799" to="-353"/>
    <trip id="98" depart="235.00" from="353" to="1799"/>
    <trip id="99" depart="238.00" from="353" to="1799"/>
    <trip id="100" depart="239.00" from="353" to="1799"/>
    <trip id="101" depart="243.00" from="353" to="1799"/>
    <trip id="102" depart="245.00" from="-1799" to="-353"/>
    <trip id="103" depart="246.00" from="353" to="1799"/>
    <trip id="104" depart="246.00" from="353" to="1799"/>
    <trip id="105" depart="247.00" from="353" to="1799"/>
    <trip id="106" depart="247.00" from="-1799" to="-353"/>
    <trip id="107" depart="250.00" from="-1799" to="-353"/>
    <trip id="108" depart="253.00" from="-1799" to="-353"/>
    <trip id="109" depart="256.00" from="-1799" to="-353"/>
    <trip id="110" depart="261.00" from="353" to="1799"/>
    <trip id="111" depart="265.00" from="-1799" to="-353"/>
    <trip id="112" depart="268.00" from="353" to="1799"/>
    <trip id="113" depart="269.00" from="353" to="1799"/>
    <trip id="114" depart="270.00" from="-1799" to="-353"/>
    <trip id="115" depart="271.00" from="-1799" to="-353"/>
    <trip id="116" depart="276.00" from="353" to="1799"/>
    <trip id="117" depart="277.00" from="353" to="1799"/>
    <trip id="118" depart="282.00" from="-1799" to="-353"/>
    <trip id="119" depart="283.00" from="353" to="1799"/>
    <trip id="120" depart="288.00" from="-1799" to="-353"/>
    <trip id="121" depart="288.00" from="-1799" to="-353"/>
    <trip id="122" depart="291.00" from="353" to="1799"/>
    <trip id="123" depart="293.00" from="-1799" to="-353"/>
    <trip id="124" depart="298.00" from="-1799" to="-353"/>
    <trip id="125" depart="299.00" from="353" to="1799"/>
    <trip id="126" depart="302.00" from="353" to="1799"/>
    <trip id="127" depart="302.00" from="-1799" to="-353"/>
    <trip id="128" depart="303.00" from="-1799" to="-353"/>
    <trip id="129" depart="307.00" from="353" to="1799"/>
    <trip id="130" depart="307.00" from="353" to="1799"/>
    <trip id="131" depart="309.00" from="-1799" to="-353"/>
    <trip id="132" depart="310.00" from="353" to="1799"/>
    <trip id="133" depart="315.00" from="353" to="1799"/>
    <trip id="134" depart="316.00" from="353" to="1799"/>
    <trip id="135" depart="316.00" from="-1799" to="-353"/>
    <trip id="136" depart="317.00" from="-1799" to="-353"/>
    <trip id="137" depart="320.00" from="-1799" to="-353"/>
    <trip id="138" depart="322.00" from="353" to="1799"/>
    <trip id="139" depart="322.00" from="-1799" to="-353"/>
    <trip id="140" depart="323.00" from="353" to="1799"/>
    <trip id="141" depart="329.00" from="353" to="1799"/>
    <trip id="142" depart="330.00" from="353" to="1799"/>
    <trip id="143" depart="331.00" from="353" to="1799"/>
    <trip id="144" depart="336.00" from="353" to="1799"/>
    <trip id="145" depart="336.00" from="353" to="1799"/>
    <trip id="146" depart="337.00" from="353" to="1799"/>
    <trip id="147" depart="341.00" from="353" to="1799"/>
    <trip id="148" depart="345.00" from="-1799" to="-353"/>
    <trip id="149" depart="348.00" from="-1799" to="-353"/>
    <trip id="150" depart="349.00" from="353" to="1799"/>
    <trip id="151" depart="349.00" from="-1799" to="-353"/>
    <trip id="152" depart="352.00" from="-1799" to="-353"/>
    <trip id="153" depart="358.00" from="353" to="1799"/>
    <trip id="154" depart="361.00" from="353" to="1799"/>
    <trip id="155" depart="365.00" from="353" to="1799"/>
    <trip id="156" depart="368.00" from="-1799" to="-353"/>
    <trip id="157" depart="369.00" from="353" to="1799"/>
    <trip id="158" depart="373.00" from="353" to="1799"/>
    <trip id="159" depart="375.00" from="353" to="1799"/>
    <trip id="160" depart="377.00" from="-1799" to="-353"/>
    <trip id="161" depart="383.00" from="-1799" to="-353"/>
    <trip id="162" depart="386.00" from="353" to="1799"/>
    <trip id="163" depart="388.00" from="-1799" to="-353"/>
    <trip id="164" depart="389.00" from="-1799" to="-353"/>
    <trip id="165" depart="390.00" from="353" to="1799"/>
    <trip id="166" depart="394.00" from="353" to="1799"/>
    <trip id="167" depart="398.00" from="-1799" to="-353"/>
    <trip id="168" depart="400.00" from="-1799" to="-353"/>
    <trip id="169" depart="401.00" from="-1799" to="-353"/>
    <trip id="170" depart="402.00" from="353" to="1799"/>
    <trip id="171" depart="403.00" from="-1799" to="-353"/>
    <trip id="172" depart="404.00" from="353" to="1799"/>
    <trip id="173" depart="404.00" from="353" to="1799"/>
    <trip id="174" depart="405.00" from="353" to="1799"/>
    <trip id="175" depart="407.00" from="-1799" to="-353"/>
    <trip id="176" depart="409.00" from="353" to="1799"/>
    <trip id="177" depart="410.00" from="-1799" to="-353"/>
    <trip id="178" depart="417.00" from="353" to="1799"/>
    <trip id="179" depart="422.00" from="-1799" to="-353"/>
    <trip id="180" depart="423.00" from="353" to="1799"/>
    <trip id="181" depart="426.00" from="353" to="1799"/>
    <trip id="182" depart="429.00" from="353" to="1799"/>
    <trip id="183" depart="429.00" from="353" to="1799"/>
    <trip id="184" depart="435.00" from="-1799" to="-353"/>
    <trip id="185" depart="435.00" from="-1799" to="-353"/>
    <trip id="186" depart="437.00" from="353" to="1799"/>
    <trip id="187" depart="440.00" from="353" to="1799"/>
    <trip id="188" depart="441.00" from="-1799" to="-353"/>
    <trip id="189" depart="443.00" from="-1799" to="-353"/>
    <trip id="190" depart="443.00" from="-1799" to="-353"/>
    <trip id="191" depart="446.00" from="-1799" to="-353"/>
    <trip id="192" depart="450.00" from="-1799" to="-353"/>
    <trip id="193" depart="451.00" from="353" to="1799"/>
    <trip id="194" depart="454.00" from="-1799" to="-353"/>
    <trip id="195" depart="454.00" from="-1799" to="-353"/>
    <trip id="196" depart="457.00" from="-1799" to="-353"/>
    <trip id="197" depart="463.00" from="-1799" to="-353"/>
    <trip id="198" depart="464.00" from="-1799" to="-353"/>
    <trip id="199" depart="472.00" from="-1799" to="-353"/>
    <trip id="200" depart="475.00" from="-1799" to="-353"/>
    <trip id="201" depart="475.00" from="353" to="1799"/>
    <trip id="202" depart="477.00" from="353" to="1799"/>
    <trip id="203" depart="479.00" from="-1799" to="-353"/>
    <trip id="204" depart="481.00" from="353" to="1799"/>
    <trip id="205" depart="485.00" from="353" to="1799"/>
    <trip id="206" depart="492.00" from="353" to="1799"/>
    <trip id="207" depart="498.00" from="353" to="1799"/>
    <trip id="208" depart="500.00" from="353" to="1799"/>
    <trip id="209" depart="504.00" from="-1799" to="-353"/>
    <trip id="210" depart="505.00" from="353" to="1799"/>
    <trip id="211" depart="507.00" from="353" to="1799"/>
    <trip id="212" depart="513.00" from="-1799" to="-353"/>
    <trip id="213" depart="514.00" from="-1799" to="-353"/>
    <trip id="214" depart="517.00" from="-1799" to="-353"/>
    <trip id="215" depart="518.00" from="-1799" to="-353"/>
    <trip id="216" depart="521.00" from="-1799" to="-353"/>
    <trip id="217" depart="524.00" from="353" to="1799"/>
    <trip id="218" depart="525.00" from="-1799" to="-353"/>
    <trip id="219" depart="526.00" from="-1799" to="-353"/>
    <trip id="220" depart="528.00" from="-1799" to="-353"/>
    <trip id="221" depart="528.00" from="-1799" to="-353"/>
    <trip id="222" depart="529.00" from="353" to="1799"/>
    <trip id="223" depart="532.00" from="353" to="1799"/>
    <trip id="224" depart="535.00" from="-1799" to="-353"/>
    <trip id="225" depart="537.00" from="-1799" to="-353"/>
    <trip id="226" depart="539.00" from="353" to="1799"/>
    <trip id="227" depart="539.00" from="353" to="1799"/>
    <trip id="228" depart="545.00" from="353" to="1799"/>
    <trip id="229" depart="546.00" from="353" to="1799"/>
    <trip id="230" depart="549.00" from="353" to="1799"/>
    <trip id="231" depart="550.00" from="353" to="1799"/>
    <trip id="232" depart="550.00" from="-1799" to="-353"/>
    <trip id="233" depart="553.00" from="353" to="1799"/>
    <trip id="234" depart="553.00" from="-1799" to="-353"/>
    <trip id="235" depart="554.00" from="353" to="1799"/>
    <trip id="236" depart="556.00" from="-1799" to="-353"/>
    <trip id="237" depart="557.00" from="-1799" to="-353"/>
    <trip id="238" depart="557.00" from="353" to="1799"/>
    <trip id="239" depart="560.00" from="353" to="1799"/>
    <trip id="240" depart="561.00" from="353" to="1799"/>
    <trip id="241" depart="563.00" from="353" to="1799"/>
    <trip id="242" depart="564.00" from="-1799" to="-353"/>
    <trip id="243" depart="570.00" from="-1799" to="-353"/>
    <trip id="244" depart="572.00" from="-1799" to="-353"/>
    <trip id="245" depart="573.00" from="-1799" to="-353"/>
    <trip id="246" depart="575.00" from="-1799" to="-353"/>
    <trip id="247" depart="576.00" from="353" to="1799"/>
    <trip id="248" depart="578.00" from="353" to="1799"/>
    <trip id="249" depart="579.00" from="-1799" to="-353"/>
    <trip id="250" depart="583.00" from="353" to="1799"/>
    <trip id="251" depart="584.00" from="-1799" to="-353"/>
    <trip id="252" depart="585.00" from="-1799" to="-353"/>
    <trip id="253" depart="588.00" from="353" to="1799"/>
    <trip id="254" depart="600.00" from="-1799" to="-353"/>
    <trip id="255" depart="600.00" from="353" to="1799"/>
    <trip id="256" depart="600.00" from="353" to="1799"/>
    <trip id="257" depart="601.00" from="-1799" to="-353"/>
    <trip id="258" depart="602.00" from="-1799" to="-353"/>
    <trip id="259" depart="605.00" from="-1799" to="-353"/>
    <trip id="260" depart="606.00" from="353" to="1799"/>
    <trip id="261" depart="608.00" from="-1799" to="-353"/>
    <trip id="262" depart="610.00" from="353" to="1799"/>
    <trip id="263" depart="612.00" from="353" to="1799"/>
    <trip id="264" depart="615.00" from="353" to="1799"/>
    <trip id="265" depart="620.00" from="-1799" to="-353"/>
    <trip id="266" depart="624.00" from="-1799" to="-353"/>
    <trip id="267" depart="631.00" from="-1799" to="-353"/>
    <trip id="268" depart="632.00" from="353" to="1799"/>
    <trip id="269" depart="632.00" from="-1799" to="-353"/>
    <trip id="270" depart="634.00" from="353" to="1799"/>
    <trip id="271" depart="636.00" from="353" to="1799"/>
    <trip id="272" depart="643.00" from="-1799" to="-353"/>
    <trip id="273" depart="643.00" from="353" to="1799"/>
    <trip id="274" depart="645.00" from="-1799" to="-353"/>
    <trip id="275" depart="646.00" from="353" to="1799"/>
    <trip id="276" depart="648.00" from="-1799" to="-353"/>
    <trip id="277" depart="649.00" from="353" to="1799"/>
    <trip id="278" depart="649.00" from="353" to="1799"/>
    <trip id="279" depart="651.00" from="353" to="1799"/>
    <trip id="280" depart="651.00" from="-1799" to="-353"/>
    <trip id="281" depart="656.00" from="353" to="1799"/>
    <trip id="282" depart="657.00" from="353" to="1799"/>
    <trip id="283" depart="660.00" from="-1799" to="-353"/>
    <trip id="284" depart="663.00" from="353" to="1799"/>
    <trip id="285" depart="665.00" from="353" to="1799"/>
    <trip id="286" depart="666.00" from="353" to="1799"/>
    <trip id="287" depart="671.00" from="-1799" to="-353"/>
    <trip id="288" depart="675.00" from="353" to="1799"/>
    <trip id="289" depart="677.00" from="353" to="1799"/>
    <trip id="290" depart="680.00" from="-1799" to="-353"/>
    <trip id="291" depart="683.00" from="353" to="1799"/>
    <trip id="292" depart="690.00" from="353" to="1799"/>
    <trip id="293" depart="694.00" from="353" to="1799"/>
    <trip id="294" depart="695.00" from="-1799" to="-353"/>
    <trip id="295" depart="700.00" from="353" to="1799"/>
    <trip id="296" depart="705.00" from="-1799" to="-353"/>
    <trip id="297" depart="710.00" from="353" to="1799"/>
    <trip id="298" depart="710.00" from="353" to="1799"/>
    <trip id="299" depart="713.00" from="353" to="1799"/>
    <trip id="300" depart="716.00" from="353" to="1799"/>
    <trip id="301" depart="717.00" from="353" to="1799"/>
    <trip id="302" depart="724.00" from="353" to="1799"/>
    <trip id="303" depart="730.00" from="-1799" to="-353"/>
    <trip id="304" depart="730.00" from="-1799" to="-353"/>
    <trip id="305" depart="738.00" from="-1799" to="-353"/>
    <trip id="306" depart="741.00" from="-1799" to="-353"/>
    <trip id="307" depart="742.00" from="353" to="1799"/>
    <trip id="308" depart="747.00" from="353" to="1799"/>
    <trip id="309" depart="749.00" from="-1799" to="-353"/>
    <trip id="310" depart="756.00" from="-1799" to="-353"/>
    <trip id="311" depart="763.00" from="-1799" to="-353"/>
    <trip id="312" depart="768.00" from="353" to="1799"/>
    <trip id="313" depart="772.00" from="-1799" to="-353"/>
    <trip id="314" depart="773.00" from="353" to="1799"/>
    <trip id="315" depart="774.00" from="-1799" to="-353"/>
    <trip id="316" depart="775.00" from="353" to="1799"/>
    <trip id="317" depart="776.00" from="-1799" to="-353"/>
    <trip id="318" depart="777.00" from="-1799" to="-353"/>
    <trip id="319" depart="781.00" from="353" to="1799"/>
    <trip id="320" depart="781.00" from="353" to="1799"/>
    <trip id="321" depart="781.00" from="-1799" to="-353"/>
    <trip id="322" depart="782.00" from="353" to="1799"/>
    <trip id="323" depart="784.00" from="353" to="1799"/>
    <trip id="324" depart="788.00" from="-1799" to="-353"/>
    <trip id="325" depart="789.00" from="-1799" to="-353"/>
    <trip id="326" depart="792.00" from="-1799" to="-353"/>
    <trip id="327" depart="793.00" from="353" to="1799"/>
    <trip id="328" depart="793.00" from="-1799" to="-353"/>
    <trip id="329" depart="794.00" from="-1799" to="-353"/>
    <trip id="330" depart="798.00" from="-1799" to="-353"/>
    <trip id="331" depart="798.00" from="-1799" to="-353"/>
    <trip id="332" depart="800.00" from="353" to="1799"/>
    <trip id="333" depart="802.00" from="-1799" to="-353"/>
    <trip id="334" depart="803.00" from="-1799" to="-353"/>
    <trip id="335" depart="804.00" from="353" to="1799"/>
    <trip id="336" depart="804.00" from="353" to="1799"/>
    <trip id="337" depart="805.00" from="-1799" to="-353"/>
    <trip id="338" depart="806.00" from="-1799" to="-353"/>
    <trip id="339" depart="807.00" from="353" to="1799"/>
    <trip id="340" depart="810.00" from="-1799" to="-353"/>
    <trip id="341" depart="817.00" from="353" to="1799"/>
    <trip id="342" depart="820.00" from="-1799" to="-353"/>
    <trip id="343" depart="824.00" from="353" to="1799"/>
    <trip id="344" depart="831.00" from="-1799" to="-353"/>
    <trip id="345" depart="832.00" from="353" to="1799"/>
    <trip id="346" depart="834.00" from="-1799" to="-353"/>
    <trip id="347" depart="837.00" from="353" to="1799"/>
    <trip id="348" depart="838.00" from="353" to="1799"/>
    <trip id="349" depart="842.00" from="353" to="1799"/>
    <trip id="350" depart="843.00" from="-1799" to="-353"/>
    <trip id="351" depart="843.00" from="353" to="1799"/>
    <trip id="352" depart="843.00" from="-1799" to="-353"/>
    <trip id="353" depart="845.00" from="-1799" to="-353"/>
    <trip id="354" depart="847.00" from="-1799" to="-353"/>
    <trip id="355" depart="848.00" from="353" to="1799"/>
    <trip id="356" depart="849.00" from="353" to="1799"/>
    <trip id="357" depart="849.00" from="353" to="1799"/>
    <trip id="358" depart="852.00" from="-1799" to="-353"/>
    <trip id="359" depart="853.00" from="353" to="1799"/>
    <trip id="360" depart="855.00" from="-1799" to="-353"/>
    <trip id="361" depart="856.00" from="353" to="1799"/>
    <trip id="362" depart="858.00" from="353" to="1799"/>
    <trip id="363" depart="861.00" from="353" to="1799"/>
    <trip id="364" depart="863.00" from="-1799" to="-353"/>
    <trip id="365" depart="865.00" from="-1799" to="-353"/>
    <trip id="366" depart="866.00" from="-1799" to="-353"/>
    <trip id="367" depart="874.00" from="353" to="1799"/>
    <trip id="368" depart="874.00" from="-1799" to="-353"/>
    <trip id="369" depart="881.00" from="-1799" to="-353"/>
    <trip id="370" depart="882.00" from="-1799" to="-353"/>
    <trip id="371" depart="888.00" from="353" to="1799"/>
    <trip id="372" depart="888.00" from="-1799" to="-353"/>
    <trip id="373" depart="888.00" from="-1799" to="-353"/>
    <trip id="374" depart="891.00" from="-1799" to="-353"/>
    <trip id="375" depart="892.00" from="-1799" to="-353"/>
    <trip id="376" depart="893.00" from="353" to="1799"/>
    <trip id="377" depart="897.00" from="-1799" to="-353"/>
    <trip id="378" depart="899.00" from="353" to="1799"/>
    <trip id="379" depart="903.00" from="-1799" to="-353"/>
    <trip id="380" depart="904.00" from="-1799" to="-353"/>
    <trip id="381" depart="909.00" from="-1799" to="-353"/>
    <trip id="382" depart="909.00" from="-1799" to="-353"/>
    <trip id="383" depart="913.00" from="353" to="1799"/>
    <trip id="384" depart="914.00" from="353" to="1799"/>
    <trip id="385" depart="914.00" from="353" to="1799"/>
    <trip id="386" depart="916.00" from="-1799" to="-353"/>
    <trip id="387" depart="916.00" from="353" to="1799"/>
    <trip id="388" depart="918.00" from="353" to="1799"/>
    <trip id="389" depart="921.00" from="353" to="1799"/>
    <trip id="390" depart="925.00" from="353" to="1799"/>
    <trip id="391" depart="925.00" from="-1799" to="-353"/>
    <trip id="392" depart="926.00" from="353" to="1799"/>
    <trip id="393" depart="928.00" from="353" to="1799"/>
    <trip id="394" depart="929.00" from="-1799" to="-353"/>
    <trip id="395" depart="932.00" from="-1799" to="-353"/>
    <trip id="396" depart="934.00" from="353" to="1799"/>
    <trip id="397" depart="934.00" from="353" to="1799"/>
    <trip id="398" depart="936.00" from="353" to="1799"/>
    <trip id="399" depart="937.00" from="-1799" to="-353"/>
    <trip id="400" depart="937.00" from="-1799" to="-353"/>
    <trip id="401" depart="937.00" from="353" to="1799"/>
    <trip id="402" depart="952.00" from="-1799" to="-353"/>
    <trip id="403" depart="955.00" from="353" to="1799"/>
    <trip id="404" depart="956.00" from="-1799" to="-353"/>
    <trip id="405" depart="957.00" from="-1799" to="-353"/>
    <trip id="406" depart="958.00" from="-1799" to="-353"/>
    <trip id="407" depart="962.00" from="-1799" to="-353"/>
    <trip id="408" depart="963.00" from="-1799" to="-353"/>
    <trip id="409" depart="963.00" from="353" to="1799"/>
    <trip id="410" depart="964.00" from="353" to="1799"/>
    <trip id="411" depart="965.00" from="353" to="1799"/>
    <trip id="412" depart="969.00" from="-1799" to="-353"/>
    <trip id="413" depart="969.00" from="353" to="1799"/>
    <trip id="414" depart="970.00" from="353" to="1799"/>
    <trip id="415" depart="972.00" from="353" to="1799"/>
    <trip id="416" depart="972.00" from="-1799" to="-353"/>
    <trip id="417" depart="977.00" from="-1799" to="-353"/>
    <trip id="418" depart="977.00" from="353" to="1799"/>
    <trip id="419" depart="987.00" from="353" to="1799"/>
    <trip id="420" depart="988.00" from="-1799" to="-353"/>
    <trip id="421" depart="991.00" from="353" to="1799"/>
    <trip id="422" depart="996.00" from="-1799" to="-353"/>
    <trip id="423" depart="997.00" from="353" to="1799"/>
    <trip id="424" depart="998.00" from="-1799" to="-353"/>
    <trip id="425" depart="1001.00" from="353" to="1799"/>
    <trip id="426" depart="1001.00" from="-1799" to="-353"/>
    <trip id="427" depart="1002.00" from="353" to="1799"/>
    <trip id="428" depart="1004.00" from="353" to="1799"/>
    <trip id="429" depart="1005.00" from="353" to="1799"/>
    <trip id="430" depart="1009.00" from="353" to="1799"/>
    <trip id="431" depart="1010.00" from="-1799" to="-353"/>
    <trip id="432" depart="1011.00" from="353" to="1799"/>
    <trip id="433" depart="1017.00" from="-1799" to="-353"/>
    <trip id="434" depart="1017.00" from="-1799" to="-353"/>
    <trip id="435" depart="1018.00" from="-1799" to="-353"/>
    <trip id="436" depart="1020.00" from="-1799" to="-353"/>
    <trip id="437" depart="1021.00" from="-1799" to="-353"/>
    <trip id="438" depart="1022.00" from="-1799" to="-353"/>
    <trip id="439" depart="1026.00" from="-1799" to="-353"/>
    <trip id="440" depart="1030.00" from="-1799" to="-353"/>
    <trip id="441" depart="1032.00" from="353" to="1799"/>
    <trip id="442" depart="1033.00" from="353" to="1799"/>
    <trip id="443" depart="1037.00" from="-1799" to="-353"/>
    <trip id="444" depart="1051.00" from="-1799" to="-353"/>
    <trip id="445" depart="1053.00" from="353" to="1799"/>
    <trip id="446" depart="1054.00" from="-1799" to="-353"/>
    <trip id="447" depart="1054.00" from="353" to="1799"/>
    <trip id="448" depart="1056.00" from="-1799" to="-353"/>
    <trip id="449" depart="1065.00" from="353" to="1799"/>
    <trip id="450" depart="1067.00" from="-1799" to="-353"/>
    <trip id="451" depart="1067.00" from="353" to="1799"/>
    <trip id="452" depart="1069.00" from="-1799" to="-353"/>
    <trip id="453" depart="1071.00" from="353" to="1799"/>
    <trip id="454" depart="1072.00" from="-1799" to="-353"/>
    <trip id="455" depart="1078.00" from="353" to="1799"/>
    <trip id="456" depart="1079.00" from="-1799" to="-353"/>
    <trip id="457" depart="1080.00" from="-1799" to="-353"/>
    <trip id="458" depart="1084.00" from="353" to="1799"/>
    <trip id="459" depart="1085.00" from="353" to="1799"/>
    <trip id="460" depart="1087.00" from="353" to="1799"/>
    <trip id="461" depart="1089.00" from="-1799" to="-353"/>
    <trip id="462" depart="1090.00" from="353" to="1799"/>
    <trip id="463" depart="1090.00" from="-1799" to="-353"/>
    <trip id="464" depart="1096.00" from="-1799" to="-353"/>
    <trip id="465" depart="1096.00" from="353" to="1799"/>
    <trip id="466" depart="1097.00" from="-1799" to="-353"/>
    <trip id="467" depart="1101.00" from="-1799" to="-353"/>
    <trip id="468" depart="1101.00" from="-1799" to="-353"/>
    <trip id="469" depart="1108.00" from="353" to="1799"/>
    <trip id="470" depart="1109.00" from="353" to="1799"/>
    <trip id="471" depart="1114.00" from="-1799" to="-353"/>
    <trip id="472" depart="1116.00" from="353" to="1799"/>
    <trip id="473" depart="1117.00" from="-1799" to="-353"/>
    <trip id="474" depart="1118.00" from="-1799" to="-353"/>
    <trip id="475" depart="1120.00" from="-1799" to="-353"/>
    <trip id="476" depart="1129.00" from="-1799" to="-353"/>
    <trip id="477" depart="1138.00" from="-1799" to="-353"/>
    <trip id="478" depart="1139.00" from="353" to="1799"/>
    <trip id="479" depart="1141.00" from="353" to="1799"/>
    <trip id="480" depart="1141.00" from="353" to="1799"/>
    <trip id="481" depart="1146.00" from="353" to="1799"/>
    <trip id="482" depart="1146.00" from="353" to="1799"/>
    <trip id="483" depart="1146.00" from="353" to="1799"/>