<?xml version="1.0" encoding="UTF-8"?>

<!-- generated on 2025-03-19 08:53:36.810223 by randomTrips.py v1_22_0+0449-9311ec3459f
<configuration>
    <net-file value="random_subnetwork_4.net.xml"/>
    <output-trip-file value="random_subnetwork_4_medium.trips.xml"/>
    <fringe-factor value="100"/>
    <min-distance value="600.0"/>
    <remove-loops value="True"/>
    <validate value="True"/>
    <period value="2.25"/>
    <random-depart value="True"/>
    <binomial value="10"/>
</configuration>
-->

<!-- generated on 2025-03-19 08:53:36 by Eclipse SUMO duarouter Version v1_22_0+0449-9311ec3459f
<duarouterConfiguration xmlns:xsi="http://www.w3.org/2001/XMLSchema-instance" xsi:noNamespaceSchemaLocation="http://sumo.dlr.de/xsd/duarouterConfiguration.xsd">

    <input>
        <net-file value="random_subnetwork_4.net.xml"/>
        <route-files value="random_subnetwork_4_medium.trips.xml"/>
    </input>

    <output>
        <output-file value="random_subnetwork_4_medium.trips.xml.tmp"/>
        <alternatives-output value="NUL"/>
        <write-trips value="true"/>
    </output>

    <processing>
        <remove-loops value="true"/>
    </processing>

    <time>
        <begin value="0.0"/>
        <end value="3600.0"/>
    </time>

    <report>
        <no-warnings value="true"/>
        <ignore-errors value="true"/>
        <no-step-log value="true"/>
    </report>

</duarouterConfiguration>
-->

<routes xmlns:xsi="http://www.w3.org/2001/XMLSchema-instance" xsi:noNamespaceSchemaLocation="http://sumo.dlr.de/xsd/routes_file.xsd">
    <trip id="0" depart="0.00" from="-1559" to="-833"/>
    <trip id="1" depart="0.00" from="833" to="1559"/>
    <trip id="2" depart="4.00" from="833" to="1559"/>
    <trip id="3" depart="7.00" from="-2042" to="-833"/>
    <trip id="4" depart="9.00" from="833" to="2042"/>
    <trip id="5" depart="23.00" from="833" to="1559"/>
    <trip id="6" depart="25.00" from="-1559" to="-833"/>
    <trip id="7" depart="28.00" from="833" to="2042"/>
    <trip id="8" depart="29.00" from="833" to="2042"/>
    <trip id="9" depart="31.00" from="-2042" to="-1085"/>
    <trip id="10" depart="33.00" from="-2042" to="-833"/>
    <trip id="11" depart="39.00" from="833" to="2042"/>
    <trip id="12" depart="39.00" from="-2042" to="-833"/>
    <trip id="13" depart="40.00" from="-2042" to="-833"/>
    <trip id="14" depart="41.00" from="833" to="2042"/>
    <trip id="15" depart="41.00" from="-1559" to="-833"/>
    <trip id="16" depart="42.00" from="833" to="1559"/>
    <trip id="17" depart="47.00" from="-1559" to="-833"/>
    <trip id="18" depart="49.00" from="-2042" to="-833"/>
    <trip id="19" depart="54.00" from="833" to="2042"/>
    <trip id="20" depart="56.00" from="833" to="2042"/>
    <trip id="21" depart="56.00" from="833" to="1559"/>
    <trip id="22" depart="65.00" from="833" to="1559"/>
    <trip id="23" depart="66.00" from="833" to="2042"/>
    <trip id="24" depart="68.00" from="833" to="2042"/>
    <trip id="25" depart="70.00" from="833" to="2042"/>
    <trip id="26" depart="78.00" from="-1559" to="-833"/>
    <trip id="27" depart="80.00" from="833" to="2042"/>
    <trip id="28" depart="82.00" from="-1559" to="-833"/>
    <trip id="29" depart="82.00" from="-1559" to="-833"/>
    <trip id="30" depart="83.00" from="-1559" to="-833"/>
    <trip id="31" depart="84.00" from="833" to="2042"/>
    <trip id="32" depart="91.00" from="833" to="2042"/>
    <trip id="33" depart="92.00" from="-2042" to="-833"/>
    <trip id="34" depart="95.00" from="-2042" to="-833"/>
    <trip id="35" depart="95.00" from="833" to="2042"/>
    <trip id="36" depart="108.00" from="833" to="2042"/>
    <trip id="37" depart="112.00" from="833" to="2042"/>
    <trip id="38" depart="113.00" from="-1559" to="-833"/>
    <trip id="39" depart="115.00" from="833" to="1559"/>
    <trip id="40" depart="115.00" from="-1559" to="-833"/>
    <trip id="41" depart="116.00" from="833" to="2042"/>
    <trip id="42" depart="118.00" from="833" to="1559"/>
    <trip id="43" depart="120.00" from="-1559" to="-833"/>
    <trip id="44" depart="123.00" from="-2042" to="-833"/>
    <trip id="45" depart="128.00" from="833" to="1559"/>
    <trip id="46" depart="132.00" from="-2042" to="-833"/>
    <trip id="47" depart="136.00" from="833" to="2042"/>
    <trip id="48" depart="137.00" from="833" to="2042"/>
    <trip id="49" depart="144.00" from="833" to="1559"/>
    <trip id="50" depart="146.00" from="-2042" to="-833"/>
    <trip id="51" depart="150.00" from="-1559" to="-833"/>
    <trip id="52" depart="156.00" from="833" to="2042"/>
    <trip id="53" depart="157.00" from="-2042" to="-833"/>
    <trip id="54" depart="158.00" from="-1559" to="-833"/>
    <trip id="55" depart="158.00" from="833" to="2042"/>
    <trip id="56" depart="162.00" from="833" to="2042"/>
    <trip id="57" depart="167.00" from="833" to="2042"/>
    <trip id="58" depart="168.00" from="-2042" to="-833"/>
    <trip id="59" depart="169.00" from="833" to="2042"/>
    <trip id="60" depart="171.00" from="-1559" to="-833"/>
    <trip id="61" depart="172.00" from="833" to="1559"/>
    <trip id="62" depart="174.00" from="833" to="1559"/>
    <trip id="63" depart="176.00" from="833" to="2042"/>
    <trip id="64" depart="184.00" from="833" to="1559"/>
    <trip id="65" depart="184.00" from="-1559" to="-833"/>
    <trip id="66" depart="185.00" from="-2042" to="-833"/>
    <trip id="67" depart="190.00" from="-2042" to="-833"/>
    <trip id="68" depart="191.00" from="833" to="1559"/>
    <trip id="69" depart="196.00" from="833" to="1559"/>
    <trip id="70" depart="197.00" from="-2042" to="-833"/>
    <trip id="71" depart="199.00" from="833" to="2042"/>
    <trip id="72" depart="201.00" from="-1559" to="-833"/>
    <trip id="73" depart="205.00" from="-1559" to="-833"/>
    <trip id="74" depart="209.00" from="833" to="1559"/>
    <trip id="75" depart="211.00" from="833" to="2042"/>
    <trip id="76" depart="212.00" from="833" to="2042"/>
    <trip id="77" depart="212.00" from="-2042" to="-833"/>
    <trip id="78" depart="217.00" from="833" to="1559"/>
    <trip id="79" depart="217.00" from="-1559" to="-833"/>
    <trip id="80" depart="219.00" from="833" to="2042"/>
    <trip id="81" depart="219.00" from="-2042" to="-833"/>
    <trip id="82" depart="219.00" from="-2042" to="-833"/>
    <trip id="83" depart="224.00" from="833" to="1559"/>
    <trip id="84" depart="225.00" from="833" to="2042"/>
    <trip id="85" depart="225.00" from="833" to="2042"/>
    <trip id="86" depart="228.00" from="-1559" to="-833"/>
    <trip id="87" depart="229.00" from="833" to="2042"/>
    <trip id="88" depart="231.00" from="-1559" to="-833"/>
    <trip id="89" depart="233.00" from="-2042" to="-833"/>
    <trip id="90" depart="239.00" from="833" to="1559"/>
    <trip id="91" depart="242.00" from="-2042" to="-833"/>
    <trip id="92" depart="242.00" from="833" to="2042"/>
    <trip id="93" depart="243.00" from="833" to="2042"/>
    <trip id="94" depart="243.00" from="-2042" to="-833"/>
    <trip id="95" depart="247.00" from="833" to="2042"/>
    <trip id="96" depart="252.00" from="833" to="1559"/>
    <trip id="97" depart="252.00" from="833" to="1559"/>
    <trip id="98" depart="254.00" from="833" to="1559"/>
    <trip id="99" depart="254.00" from="-2042" to="-833"/>
    <trip id="100" depart="256.00" from="833" to="1559"/>
    <trip id="101" depart="256.00" from="-1559" to="-833"/>
    <trip id="102" depart="257.00" from="-2042" to="-833"/>
    <trip id="103" depart="260.00" from="-2042" to="-833"/>
    <trip id="104" depart="262.00" from="-2042" to="-833"/>
    <trip id="105" depart="272.00" from="-2042" to="-833"/>
    <trip id="106" depart="273.00" from="833" to="2042"/>
    <trip id="107" depart="279.00" from="833" to="2042"/>
    <trip id="108" depart="279.00" from="-2042" to="-833"/>
    <trip id="109" depart="282.00" from="-2042" to="-833"/>
    <trip id="110" depart="285.00" from="833" to="1559"/>
    <trip id="111" depart="289.00" from="-1559" to="-833"/>
    <trip id="112" depart="291.00" from="-2042" to="-833"/>
    <trip id="113" depart="295.00" from="833" to="1559"/>
    <trip id="114" depart="298.00" from="833" to="2042"/>
    <trip id="115" depart="301.00" from="833" to="2042"/>
    <trip id="116" depart="301.00" from="-2042" to="-833"/>
    <trip id="117" depart="303.00" from="833" to="1559"/>
    <trip id="118" depart="306.00" from="-1559" to="-833"/>
    <trip id="119" depart="306.00" from="833" to="2042"/>
    <trip id="120" depart="307.00" from="-1559" to="-833"/>
    <trip id="121" depart="307.00" from="833" to="1559"/>
    <trip id="122" depart="311.00" from="-1559" to="-833"/>
    <trip id="123" depart="312.00" from="833" to="1559"/>
    <trip id="124" depart="314.00" from="833" to="2042"/>
    <trip id="125" depart="316.00" from="833" to="1559"/>
    <trip id="126" depart="320.00" from="833" to="1559"/>
    <trip id="127" depart="322.00" from="-1559" to="-833"/>
    <trip id="128" depart="323.00" from="833" to="1559"/>
    <trip id="129" depart="323.00" from="833" to="1559"/>
    <trip id="130" depart="324.00" from="833" to="2042"/>
    <trip id="131" depart="324.00" from="833" to="2042"/>
    <trip id="132" depart="324.00" from="-1559" to="-833"/>
    <trip id="133" depart="327.00" from="-1559" to="-833"/>
    <trip id="134" depart="330.00" from="-2042" to="-833"/>
    <trip id="135" depart="331.00" from="-1559" to="-833"/>
    <trip id="136" depart="335.00" from="-1559" to="-833"/>
    <trip id="137" depart="340.00" from="833" to="2042"/>
    <trip id="138" depart="345.00" from="-1559" to="-833"/>
    <trip id="139" depart="348.00" from="833" to="1559"/>
    <trip id="140" depart="348.00" from="-2042" to="-833"/>
    <trip id="141" depart="352.00" from="833" to="2042"/>
    <trip id="142" depart="353.00" from="-2042" to="-833"/>
    <trip id="143" depart="353.00" from="-2042" to="-833"/>
    <trip id="144" depart="353.00" from="-1559" to="-833"/>
    <trip id="145" depart="354.00" from="-2042" to="-833"/>
    <trip id="146" depart="354.00" from="833" to="2042"/>
    <trip id="147" depart="354.00" from="-2042" to="-833"/>
    <trip id="148" depart="361.00" from="833" to="2042"/>
    <trip id="149" depart="361.00" from="833" to="1559"/>
    <trip id="150" depart="367.00" from="-2042" to="-833"/>
    <trip id="151" depart="368.00" from="833" to="1559"/>
    <trip id="152" depart="373.00" from="833" to="2042"/>
    <trip id="153" depart="374.00" from="833" to="1559"/>
    <trip id="154" depart="374.00" from="-1559" to="-833"/>
    <trip id="155" depart="377.00" from="833" to="2042"/>
    <trip id="156" depart="377.00" from="833" to="2042"/>
    <trip id="157" depart="378.00" from="-2042" to="-833"/>
    <trip id="158" depart="379.00" from="-1559" to="-833"/>
    <trip id="159" depart="384.00" from="-1559" to="-833"/>
    <trip id="160" depart="388.00" from="-1559" to="-833"/>
    <trip id="161" depart="390.00" from="833" to="1559"/>
    <trip id="162" depart="393.00" from="-2042" to="-833"/>
    <trip id="163" depart="395.00" from="-1559" to="-833"/>
    <trip id="164" depart="396.00" from="-1559" to="-833"/>
    <trip id="165" depart="400.00" from="833" to="1559"/>
    <trip id="166" depart="401.00" from="833" to="1559"/>
    <trip id="167" depart="403.00" from="-1559" to="-833"/>
    <trip id="168" depart="403.00" from="-2042" to="-833"/>
    <trip id="169" depart="409.00" from="833" to="2042"/>
    <trip id="170" depart="411.00" from="-2042" to="-833"/>
    <trip id="171" depart="412.00" from="-1559" to="-833"/>
    <trip id="172" depart="413.00" from="-1559" to="-833"/>
    <trip id="173" depart="416.00" from="-1559" to="-833"/>
    <trip id="174" depart="418.00" from="833" to="1559"/>
    <trip id="175" depart="418.00" from="-1559" to="-833"/>
    <trip id="176" depart="419.00" from="833" to="2042"/>
    <trip id="177" depart="420.00" from="833" to="1559"/>
    <trip id="178" depart="423.00" from="833" to="1559"/>
    <trip id="179" depart="424.00" from="-2042" to="-833"/>
    <trip id="180" depart="424.00" from="833" to="1559"/>
    <trip id="181" depart="425.00" from="833" to="2042"/>
    <trip id="182" depart="435.00" from="-2042" to="-833"/>
    <trip id="183" depart="437.00" from="833" to="2042"/>
    <trip id="184" depart="439.00" from="-2042" to="-833"/>
    <trip id="185" depart="444.00" from="833" to="2042"/>
    <trip id="186" depart="444.00" from="833" to="2042"/>
    <trip id="187" depart="449.00" from="-1559" to="-833"/>
    <trip id="188" depart="451.00" from="-1559" to="-833"/>
    <trip id="189" depart="452.00" from="-2042" to="-833"/>
    <trip id="190" depart="455.00" from="-1559" to="-833"/>
    <trip id="191" depart="457.00" from="-1559" to="-833"/>
    <trip id="192" depart="464.00" from="833" to="1559"/>
    <trip id="193" depart="466.00" from="833" to="1559"/>
    <trip id="194" depart="471.00" from="-2042" to="-833"/>
    <trip id="195" depart="474.00" from="-1559" to="-833"/>
    <trip id="196" depart="475.00" from="833" to="1559"/>
    <trip id="197" depart="479.00" from="833" to="1559"/>
    <trip id="198" depart="481.00" from="833" to="2042"/>
    <trip id="199" depart="483.00" from="-1559" to="-833"/>
    <trip id="200" depart="489.00" from="-1559" to="-833"/>
    <trip id="201" depart="492.00" from="833" to="1559"/>
    <trip id="202" depart="494.00" from="833" to="2042"/>
    <trip id="203" depart="496.00" from="833" to="2042"/>
    <trip id="204" depart="497.00" from="833" to="1559"/>
    <trip id="205" depart="501.00" from="833" to="1559"/>
    <trip id="206" depart="505.00" from="-1559" to="-833"/>
    <trip id="207" depart="507.00" from="-1559" to="-833"/>
    <trip id="208" depart="508.00" from="-1559" to="-833"/>
    <trip id="209" depart="509.00" from="833" to="2042"/>
    <trip id="210" depart="511.00" from="833" to="2042"/>
    <trip id="211" depart="513.00" from="833" to="1559"/>
    <trip id="212" depart="513.00" from="-2042" to="-833"/>
    <trip id="213" depart="515.00" from="833" to="2042"/>
    <trip id="214" depart="519.00" from="-1559" to="-833"/>
    <trip id="215" depart="521.00" from="833" to="2042"/>
    <trip id="216" depart="522.00" from="-2042" to="-833"/>
    <trip id="217" depart="522.00" from="-1559" to="-833"/>
    <trip id="218" depart="529.00" from="833" to="1559"/>
    <trip id="219" depart="535.00" from="-1559" to="-833"/>
    <trip id="220" depart="536.00" from="-1559" to="-833"/>
    <trip id="221" depart="539.00" from="833" to="1559"/>
    <trip id="222" depart="541.00" from="-2042" to="-833"/>
    <trip id="223" depart="541.00" from="833" to="2042"/>
    <trip id="224" depart="542.00" from="833" to="1559"/>
    <trip id="225" depart="548.00" from="-1559" to="-833"/>
    <trip id="226" depart="548.00" from="-1559" to="-833"/>
    <trip id="227" depart="550.00" from="-1559" to="-833"/>
    <trip id="228" depart="552.00" from="833" to="1559"/>
    <trip id="229" depart="554.00" from="833" to="2042"/>
    <trip id="230" depart="556.00" from="-1559" to="-833"/>
    <trip id="231" depart="558.00" from="-1559" to="-833"/>
    <trip id="232" depart="558.00" from="833" to="2042"/>
    <trip id="233" depart="558.00" from="833" to="1559"/>
    <trip id="234" depart="563.00" from="-1559" to="-833"/>
    <trip id="235" depart="567.00" from="-1559" to="-833"/>
    <trip id="236" depart="568.00" from="833" to="1559"/>
    <trip id="237" depart="571.00" from="833" to="2042"/>
    <trip id="238" depart="572.00" from="833" to="2042"/>
    <trip id="239" depart="574.00" from="-1559" to="-833"/>
    <trip id="240" depart="577.00" from="-1559" to="-833"/>
    <trip id="241" depart="582.00" from="-2042" to="-833"/>
    <trip id="242" depart="583.00" from="-2042" to="-833"/>
    <trip id="243" depart="583.00" from="-2042" to="-833"/>
    <trip id="244" depart="584.00" from="833" to="2042"/>
    <trip id="245" depart="592.00" from="-2042" to="-833"/>
    <trip id="246" depart="593.00" from="-1559" to="-833"/>
    <trip id="247" depart="595.00" from="833" to="2042"/>
    <trip id="248" depart="597.00" from="833" to="2042"/>
    <trip id="249" depart="597.00" from="833" to="1559"/>
    <trip id="250" depart="599.00" from="833" to="2042"/>
    <trip id="251" depart="599.00" from="833" to="1559"/>
    <trip id="252" depart="602.00" from="-2042" to="-833"/>
    <trip id="253" depart="605.00" from="833" to="2042"/>
    <trip id="254" depart="608.00" from="833" to="1559"/>
    <trip id="255" depart="616.00" from="833" to="2042"/>
    <trip id="256" depart="623.00" from="-2042" to="-833"/>
    <trip id="257" depart="624.00" from="833" to="1559"/>
    <trip id="258" depart="626.00" from="833" to="1559"/>
    <trip id="259" depart="630.00" from="-2042" to="-833"/>
    <trip id="260" depart="631.00" from="833" to="1559"/>
    <trip id="261" depart="633.00" from="-2042" to="-833"/>
    <trip id="262" depart="641.00" from="-2042" to="-833"/>
    <trip id="263" depart="643.00" from="833" to="1559"/>
    <trip id="264" depart="644.00" from="-1559" to="-833"/>
    <trip id="265" depart="646.00" from="833" to="2042"/>
    <trip id="266" depart="648.00" from="-1559" to="-833"/>
    <trip id="267" depart="651.00" from="833" to="2042"/>
    <trip id="268" depart="652.00" from="-1559" to="-833"/>
    <trip id="269" depart="655.00" from="833" to="1559"/>
    <trip id="270" depart="655.00" from="833" to="2042"/>
    <trip id="271" depart="658.00" from="-1559" to="-833"/>
    <trip id="272" depart="660.00" from="833" to="2042"/>
    <trip id="273" depart="660.00" from="-1559" to="-833"/>
    <trip id="274" depart="660.00" from="833" to="2042"/>
    <trip id="275" depart="662.00" from="-2042" to="-833"/>
    <trip id="276" depart="666.00" from="833" to="1559"/>
    <trip id="277" depart="669.00" from="833" to="2042"/>
    <trip id="278" depart="670.00" from="833" to="1559"/>
    <trip id="279" depart="671.00" from="-2042" to="-833"/>
    <trip id="280" depart="674.00" from="833" to="1559"/>
    <trip id="281" depart="675.00" from="-2042" to="-833"/>
    <trip id="282" depart="681.00" from="833" to="1559"/>
    <trip id="283" depart="683.00" from="833" to="1559"/>
    <trip id="284" depart="685.00" from="833" to="2042"/>
    <trip id="285" depart="688.00" from="833" to="2042"/>
    <trip id="286" depart="689.00" from="-1559" to="-833"/>
    <trip id="287" depart="692.00" from="833" to="2042"/>
    <trip id="288" depart="692.00" from="833" to="1559"/>
    <trip id="289" depart="693.00" from="833" to="2042"/>
    <trip id="290" depart="696.00" from="-2042" to="-833"/>
    <trip id="291" depart="699.00" from="833" to="2042"/>
    <trip id="292" depart="699.00" from="-2042" to="-833"/>
    <trip id="293" depart="700.00" from="-1559" to="-833"/>
    <trip id="294" depart="704.00" from="833" to="1559"/>
    <trip id="295" depart="705.00" from="833" to="2042"/>
    <trip id="296" depart="708.00" from="-2042" to="-833"/>
    <trip id="297" depart="710.00" from="-1559" to="-833"/>
    <trip id="298" depart="715.00" from="-1559" to="-833"/>
    <trip id="299" depart="718.00" from="-2042" to="-833"/>
    <trip id="300" depart="720.00" from="-1559" to="-833"/>
    <trip id="301" depart="723.00" from="-1559" to="-833"/>
    <trip id="302" depart="724.00" from="833" to="2042"/>
    <trip id="303" depart="724.00" from="833" to="2042"/>
    <trip id="304" depart="727.00" from="833" to="1559"/>
    <trip id="305" depart="728.00" from="-2042" to="-833"/>
    <trip id="306" depart="728.00" from="-1559" to="-833"/>
    <trip id="307" depart="733.00" from="833" to="1559"/>
    <trip id="308" depart="733.00" from="833" to="2042"/>
    <trip id="309" depart="735.00" from="-2042" to="-833"/>
    <trip id="310" depart="739.00" from="-2042" to="-833"/>
    <trip id="311" depart="752.00" from="-1559" to="-833"/>
    <trip id="312" depart="753.00" from="833" to="2042"/>
    <trip id="313" depart="753.00" from="833" to="1559"/>
    <trip id="314" depart="755.00" from="-1559" to="-833"/>
    <trip id="315" depart="755.00" from="-1559" to="-833"/>
    <trip id="316" depart="759.00" from="-1559" to="-833"/>
    <trip id="317" depart="759.00" from="833" to="2042"/>
    <trip id="318" depart="762.00" from="833" to="2042"/>
    <trip id="319" depart="766.00" from="-2042" to="-833"/>
    <trip id="320" depart="769.00" from="833" to="1559"/>
    <trip id="321" depart="772.00" from="-2042" to="-833"/>
    <trip id="322" depart="772.00" from="833" to="2042"/>
    <trip id="323" depart="779.00" from="833" to="2042"/>
    <trip id="324" depart="779.00" from="833" to="1559"/>
    <trip id="325" depart="780.00" from="-2042" to="-833"/>
    <trip id="326" depart="781.00" from="-1559" to="-833"/>
    <trip id="327" depart="788.00" from="833" to="2042"/>
    <trip id="328" depart="789.00" from="833" to="1559"/>
    <trip id="329" depart="789.00" from="-2042" to="-833"/>
    <trip id="330" depart="789.00" from="-1559" to="-833"/>
    <trip id="331" depart="792.00" from="833" to="1559"/>
    <trip id="332" depart="795.00" from="833" to="1559"/>
    <trip id="333" depart="802.00" from="833" to="2042"/>
    <trip id="334" depart="802.00" from="-2042" to="-833"/>
    <trip id="335" depart="802.00" from="833" to="2042"/>
    <trip id="336" depart="803.00" from="-1559" to="-833"/>
    <trip id="337" depart="804.00" from="833" to="2042"/>
    <trip id="338" depart="806.00" from="833" to="2042"/>
    <trip id="339" depart="809.00" from="833" to="1559"/>
    <trip id="340" depart="811.00" from="-1559" to="-833"/>
    <trip id="341" depart="811.00" from="-2042" to="-833"/>
    <trip id="342" depart="812.00" from="833" to="1559"/>
    <trip id="343" depart="814.00" from="833" to="2042"/>
    <trip id="344" depart="815.00" from="-1559" to="-833"/>
    <trip id="345" depart="820.00" from="833" to="1559"/>
    <trip id="346" depart="821.00" from="833" to="1559"/>
    <trip id="347" depart="824.00" from="-1559" to="-833"/>
    <trip id="348" depart="827.00" from="833" to="1559"/>
    <trip id="349" depart="830.00" from="833" to="1559"/>
    <trip id="350" depart="830.00" from="-2042" to="-833"/>
    <trip id="351" depart="838.00" from="833" to="2042"/>
    <trip id="352" depart="839.00" from="833" to="2042"/>
    <trip id="353" depart="844.00" from="833" to="1559"/>
    <trip id="354" depart="845.00" from="833" to="1559"/>
    <trip id="355" depart="849.00" from="-1559" to="-833"/>
    <trip id="356" depart="852.00" from="833" to="1559"/>
    <trip id="357" depart="858.00" from="-2042" to="-833"/>
    <trip id="358" depart="863.00" from="833" to="1559"/>
    <trip id="359" depart="864.00" from="833" to="2042"/>
    <trip id="360" depart="867.00" from="-2042" to="-833"/>
    <trip id="361" depart="867.00" from="-1559" to="-833"/>
    <trip id="362" depart="872.00" from="833" to="1559"/>
    <trip id="363" depart="877.00" from="833" to="2042"/>
    <trip id="364" depart="878.00" from="1085" to="2042"/>
    <trip id="365" depart="880.00" from="833" to="1559"/>
    <trip id="366" depart="881.00" from="-2042" to="-833"/>
    <trip id="367" depart="885.00" from="-2042" to="-833"/>
    <trip id="368" depart="887.00" from="833" to="2042"/>
    <trip id="369" depart="889.00" from="833" to="1559"/>
    <trip id="370" depart="897.00" from="-2042" to="-833"/>
    <trip id="371" depart="904.00" from="833" to="2042"/>
    <trip id="372" depart="905.00" from="-1559" to="-833"/>
    <trip id="373" depart="912.00" from="-2042" to="-833"/>
    <trip id="374" depart="915.00" from="833" to="2042"/>
    <trip id="375" depart="917.00" from="833" to="2042"/>
    <trip id="376" depart="922.00" from="833" to="2042"/>
    <trip id="377" depart="922.00" from="833" to="1559"/>
    <trip id="378" depart="925.00" from="-1559" to="-833"/>
    <trip id="379" depart="932.00" from="833" to="2042"/>
    <trip id="380" depart="939.00" from="-2042" to="-833"/>
    <trip id="381" depart="946.00" from="833" to="1559"/>
    <trip id="382" depart="949.00" from="833" to="2042"/>
    <trip id="383" depart="951.00" from="833" to="1559"/>
    <trip id="384" depart="953.00" from="1085" to="2042"/>
    <trip id="385" depart="953.00" from="833" to="2042"/>
    <trip id="386" depart="956.00" from="833" to="1559"/>
    <trip id="387" depart="957.00" from="-1559" to="-833"/>
    <trip id="388" depart="958.00" from="-1559" to="-833"/>
    <trip id="389" depart="962.00" from="-2042" to="-833"/>
    <trip id="390" depart="963.00" from="833" to="2042"/>
    <trip id="391" depart="964.00" from="-1559" to="-833"/>
    <trip id="392" depart="964.00" from="833" to="2042"/>
    <trip id="393" depart="965.00" from="833" to="1559"/>
    <trip id="394" depart="967.00" from="-2042" to="-833"/>
    <trip id="395" depart="971.00" from="-1559" to="-833"/>
    <trip id="396" depart="973.00" from="-1559" to="-833"/>
    <trip id="397" depart="976.00" from="-1559" to="-833"/>
    <trip id="398" depart="976.00" from="833" to="1559"/>
    <trip id="399" depart="977.00" from="-2042" to="-833"/>
    <trip id="400" depart="977.00" from="-1559" to="-833"/>
    <trip id="401" depart="978.00" from="-1559" to="-833"/>
    <trip id="402" depart="982.00" from="-1559" to="-833"/>
    <trip id="403" depart="982.00" from="-1559" to="-833"/>
    <trip id="404" depart="984.00" from="-2042" to="-833"/>
    <trip id="405" depart="985.00" from="-1559" to="-833"/>
    <trip id="406" depart="986.00" from="833" to="2042"/>
    <trip id="407" depart="989.00" from="-1559" to="-833"/>
    <trip id="408" depart="990.00" from="-1559" to="-833"/>
    <trip id="409" depart="992.00" from="833" to="1559"/>
    <trip id="410" depart="992.00" from="833" to="1559"/>
    <trip id="411" depart="993.00" from="833" to="2042"/>
    <trip id="412" depart="995.00" from="833" to="2042"/>
    <trip id="413" depart="995.00" from="-1559" to="-833"/>
    <trip id="414" depart="996.00" from="-2042" to="-833"/>
    <trip id="415" depart="999.00" from="-2042" to="-833"/>
    <trip id="416" depart="1002.00" from="833" to="2042"/>
    <trip id="417" depart="1003.00" from="-1559" to="-833"/>
    <trip id="418" depart="1011.00" from="833" to="1559"/>
    <trip id="419" depart="1014.00" from="833" to="2042"/>
    <trip id="420" depart="1019.00" from="833" to="1559"/>
    <trip id="421" depart="1025.00" from="833" to="2042"/>
    <trip id="422" depart="1026.00" from="-2042" to="-833"/>
    <trip id="423" depart="1027.00" from="833" to="1559"/>
    <trip id="424" depart="1029.00" from="-1559" to="-833"/>
    <trip id="425" depart="1033.00" from="833" to="1559"/>
    <trip id="426" depart="1034.00" from="-2042" to="-833"/>
    <trip id="427" depart="1035.00" from="833" to="1559"/>
    <trip id="428" depart="1041.00" from="833" to="1559"/>
    <trip id="429" depart="1042.00" from="-1559" to="-833"/>
    <trip id="430" depart="1043.00" from="833" to="1559"/>
    <trip id="431" depart="1043.00" from="-1559" to="-833"/>
    <trip id="432" depart="1045.00" from="-1559" to="-833"/>
    <trip id="433" depart="1047.00" from="-1559" to="-833"/>
    <trip id="434" depart="1047.00" from="833" to="1559"/>
    <trip id="435" depart="1047.00" from="833" to="2042"/>
    <trip id="436" depart="1049.00" from="-2042" to="-833"/>
    <trip id="437" depart="1053.00" from="-2042" to="-833"/>
    <trip id="438" depart="1056.00" from="-1559" to="-833"/>
    <trip id="439" depart="1057.00" from="833" to="2042"/>
    <trip id="440" depart="1062.00" from="833" to="2042"/>
    <trip id="441" depart="1063.00" from="833" to="1559"/>
    <trip id="442" depart="1065.00" from="833" to="1559"/>
    <trip id="443" depart="1068.00" from="833" to="1559"/>
    <trip id="444" depart="1070.00" from="833" to="2042"/>
    <trip id="445" depart="1073.00" from="-1559" to="-833"/>
    <trip id="446" depart="1074.00" from="-1559" to="-833"/>
    <trip id="447" depart="1081.00" from="833" to="1559"/>
    <trip id="448" depart="1082.00" from="-1559" to="-833"/>
    <trip id="449" depart="1088.00" from="-2042" to="-833"/>
    <trip id="450" depart="1090.00" from="833" to="2042"/>
    <trip id="451" depart="1090.00" from="-1559" to="-833"/>
    <trip id="452" depart="1096.00" from="-2042" to="-833"/>
    <trip id="453" depart="1097.00" from="-1559" to="-833"/>
    <trip id="454" depart="1098.00" from="-1559" to="-833"/>
    <trip id="455" depart="1101.00" from="-2042" to="-833"/>
    <trip id="456" depart="1102.00" from="-1559" to="-833"/>
    <trip id="457" depart="1102.00" from="833" to="2042"/>
    <trip id="458" depart="1103.00" from="833" to="1559"/>
    <trip id="459" depart="1107.00" from="833" to="2042"/>
    <trip id="460" depart="1107.00" from="833" to="2042"/>
    <trip id="461" depart="1108.00" from="-2042" to="-833"/>
    <trip id="462" depart="1113.00" from="-1559" to="-833"/>
    <trip id="463" depart="1114.00" from="-2042" to="-833"/>
    <trip id="464" depart="1119.00" from="-1559" to="-833"/>
    <trip id="465" depart="1120.00" from="-1559" to="-833"/>
    <trip id="466" depart="1124.00" from="833" to="2042"/>
    <trip id="467" depart="1128.00" from="-2042" to="-833"/>
    <trip id="468" depart="1130.00" from="833" to="1559"/>
    <trip id="469" depart="1130.00" from="833" to="2042"/>
    <trip id="470" depart="1133.00" from="-1559" to="-833"/>
    <trip id="471" depart="1134.00" from="833" to="1559"/>
    <trip id="472" depart="1136.00" from="-2042" to="-833"/>
    <trip id="473" depart="1137.00" from="-1559" to="-833"/>
    <trip id="474" depart="1141.00" from="833" to="1559"/>
    <trip id="475" depart="1145.00" from="833" to="1559"/>
    <trip id="476" depart="1145.00" from="-2042" to="-833"/>
    <trip id="477" depart="1146.00" from="-2042" to="-833"/>
    <trip id="478" depart="1146.00" from="-2042" to="-833"/>
    <trip id="479" depart="1149.00" from="833" to="1559"/>
    <trip id="480" depart="1150.00" from="-2042" to="-833"/>
    <trip id="481" depart="1155.00" from="833" to="2042"/>
    <trip id="482" depart="1155.00" from="-1559" to="-833"/>