<?xml version="1.0" encoding="UTF-8"?>

<!-- generated on 2025-03-04 13:55:44 by Eclipse SUMO netedit Version 1.20.0
<configuration xmlns:xsi="http://www.w3.org/2001/XMLSchema-instance" xsi:noNamespaceSchemaLocation="http://sumo.dlr.de/xsd/neteditConfiguration.xsd">

    <input>
        <sumo-net-file value="/Users/rohitbokade/Desktop/random_subnetworks/random_subnetwork_6.net.xml"/>
    </input>

    <output>
        <output-file value="/Users/rohitbokade/Desktop/random_subnetworks/random_subnetwork_6.net.xml"/>
    </output>

    <processing>
        <geometry.min-radius.fix.railways value="false"/>
        <geometry.max-grade.fix value="false"/>
        <offset.disable-normalization value="true"/>
        <lefthand value="0"/>
    </processing>

    <junctions>
        <no-turnarounds value="true"/>
        <junctions.corner-detail value="5"/>
        <junctions.limit-turn-speed value="5.50"/>
        <rectangular-lane-cut value="0"/>
    </junctions>

    <pedestrian>
        <walkingareas value="0"/>
    </pedestrian>

</configuration>
-->

<net version="1.20" junctionCornerDetail="5" limitTurnSpeed="5.50" xmlns:xsi="http://www.w3.org/2001/XMLSchema-instance" xsi:noNamespaceSchemaLocation="http://sumo.dlr.de/xsd/net_file.xsd">

    <location netOffset="2000.00,1800.00" convBoundary="400.00,1000.00,1400.00,2000.00" origBoundary="-2000.00,-1800.00,800.00,1200.00" projParameter="!"/>

    <edge id=":1101_0" function="internal">
        <lane id=":1101_0_0" index="0" speed="8.96" length="18.06" shape="1404.80,1593.60 1404.10,1598.50 1402.00,1602.00 1398.50,1604.10 1393.60,1604.80"/>
        <lane id=":1101_0_1" index="1" speed="7.66" length="12.90" shape="1401.60,1593.60 1401.10,1597.10 1399.60,1599.60 1397.10,1601.10 1393.60,1601.60"/>
    </edge>
    <edge id=":1101_2" function="internal">
        <lane id=":1101_2_0" index="0" speed="3.90" length="2.58" shape="1393.60,1595.20 1394.30,1595.10 1394.80,1594.80 1395.10,1594.30 1395.20,1593.60"/>
        <lane id=":1101_2_1" index="1" speed="6.08" length="7.74" shape="1393.60,1598.40 1395.70,1598.10 1397.20,1597.20 1398.10,1595.70 1398.40,1593.60"/>
    </edge>
    <edge id=":1103_0" function="internal">
        <lane id=":1103_0_0" index="0" speed="3.65" length="4.67" shape="601.60,1800.00 600.80,1801.20 600.00,1801.60 599.20,1801.20 598.40,1800.00"/>
    </edge>
    <edge id=":1107_0" function="internal">
        <lane id=":1107_0_0" index="0" speed="8.96" length="18.06" shape="395.20,1406.40 395.90,1401.50 398.00,1398.00 401.50,1395.90 406.40,1395.20"/>
        <lane id=":1107_0_1" index="1" speed="7.66" length="12.90" shape="398.40,1406.40 398.90,1402.90 400.40,1400.40 402.90,1398.90 406.40,1398.40"/>
    </edge>
    <edge id=":1107_2" function="internal">
        <lane id=":1107_2_0" index="0" speed="3.90" length="2.58" shape="406.40,1404.80 405.70,1404.90 405.20,1405.20 404.90,1405.70 404.80,1406.40"/>
        <lane id=":1107_2_1" index="1" speed="6.08" length="7.74" shape="406.40,1401.60 404.30,1401.90 402.80,1402.80 401.90,1404.30 401.60,1406.40"/>
    </edge>
    <edge id=":1572_0" function="internal">
        <lane id=":1572_0_0" index="0" speed="6.51" length="9.03" shape="1195.20,1610.40 1194.85,1607.95 1193.80,1606.20 1192.05,1605.15 1189.60,1604.80"/>
        <lane id=":1572_0_1" index="1" speed="8.00" length="14.19" shape="1198.40,1610.40 1197.85,1606.55 1196.20,1603.80 1193.45,1602.15 1189.60,1601.60"/>
    </edge>
    <edge id=":1572_2" function="internal">
        <lane id=":1572_2_0" index="0" speed="9.26" length="19.35" shape="1198.40,1610.40 1199.15,1605.15 1201.40,1601.40 1205.15,1599.15 1210.40,1598.40"/>
    </edge>
    <edge id=":1572_3" function="internal">
        <lane id=":1572_3_0" index="0" speed="3.65" length="2.34" shape="1198.40,1610.40 1199.20,1609.20 1200.00,1608.80"/>
    </edge>
    <edge id=":1572_12" function="internal">
        <lane id=":1572_12_0" index="0" speed="3.65" length="2.34" shape="1200.00,1608.80 1200.80,1609.20 1201.60,1610.40"/>
    </edge>
    <edge id=":1572_4" function="internal">
        <lane id=":1572_4_0" index="0" speed="6.51" length="9.03" shape="1210.40,1604.80 1207.95,1605.15 1206.20,1606.20 1205.15,1607.95 1204.80,1610.40"/>
    </edge>
    <edge id=":1572_5" function="internal">
        <lane id=":1572_5_0" index="0" speed="13.89" length="20.80" shape="1210.40,1604.80 1189.60,1604.80"/>
        <lane id=":1572_5_1" index="1" speed="13.89" length="20.80" shape="1210.40,1601.60 1189.60,1601.60"/>
    </edge>
    <edge id=":1572_7" function="internal">
        <lane id=":1572_7_0" index="0" speed="3.65" length="1.44" shape="1210.40,1601.60 1209.20,1600.80"/>
    </edge>
    <edge id=":1572_13" function="internal">
        <lane id=":1572_13_0" index="0" speed="3.65" length="3.23" shape="1209.20,1600.80 1208.80,1600.00 1209.20,1599.20 1210.40,1598.40"/>
    </edge>
    <edge id=":1572_8" function="internal">
        <lane id=":1572_8_0" index="0" speed="13.89" length="20.80" shape="1189.60,1595.20 1210.40,1595.20"/>
        <lane id=":1572_8_1" index="1" speed="13.89" length="20.80" shape="1189.60,1598.40 1210.40,1598.40"/>
    </edge>
    <edge id=":1572_10" function="internal">
        <lane id=":1572_10_0" index="0" speed="9.26" length="5.01" shape="1189.60,1598.40 1194.56,1599.11"/>
    </edge>
    <edge id=":1572_11" function="internal">
        <lane id=":1572_11_0" index="0" speed="3.65" length="1.44" shape="1189.60,1598.40 1190.80,1599.20"/>
    </edge>
    <edge id=":1572_14" function="internal">
        <lane id=":1572_14_0" index="0" speed="9.26" length="14.34" shape="1194.56,1599.11 1194.85,1599.15 1198.60,1601.40 1200.85,1605.15 1201.60,1610.40"/>
    </edge>
    <edge id=":1572_15" function="internal">
        <lane id=":1572_15_0" index="0" speed="3.65" length="3.23" shape="1190.80,1599.20 1191.20,1600.00 1190.80,1600.80 1189.60,1601.60"/>
    </edge>
    <edge id=":1676_0" function="internal">
        <lane id=":1676_0_0" index="0" speed="3.65" length="4.67" shape="401.60,1600.00 400.80,1601.20 400.00,1601.60 399.20,1601.20 398.40,1600.00"/>
    </edge>
    <edge id=":2053_0" function="internal">
        <lane id=":2053_0_0" index="0" speed="3.65" length="4.67" shape="800.00,1601.60 798.80,1600.80 798.40,1600.00 798.80,1599.20 800.00,1598.40"/>
    </edge>
    <edge id=":337_0" function="internal">
        <lane id=":337_0_0" index="0" speed="3.65" length="4.67" shape="1398.40,1000.00 1399.20,998.80 1400.00,998.40 1400.80,998.80 1401.60,1000.00"/>
    </edge>
    <edge id=":484_0" function="internal">
        <lane id=":484_0_0" index="0" speed="3.65" length="4.67" shape="998.40,1000.00 999.20,998.80 1000.00,998.40 1000.80,998.80 1001.60,1000.00"/>
    </edge>
    <edge id=":538_0" function="internal">
        <lane id=":538_0_0" index="0" speed="13.89" length="20.80" shape="1010.40,1404.80 989.60,1404.80"/>
        <lane id=":538_0_1" index="1" speed="13.89" length="20.80" shape="1010.40,1401.60 989.60,1401.60"/>
    </edge>
    <edge id=":538_2" function="internal">
        <lane id=":538_2_0" index="0" speed="9.26" length="5.01" shape="1010.40,1401.60 1005.44,1400.89"/>
    </edge>
    <edge id=":538_3" function="internal">
        <lane id=":538_3_0" index="0" speed="3.65" length="1.44" shape="1010.40,1401.60 1009.20,1400.80"/>
    </edge>
    <edge id=":538_12" function="internal">
        <lane id=":538_12_0" index="0" speed="9.26" length="14.34" shape="1005.44,1400.89 1005.15,1400.85 1001.40,1398.60 999.15,1394.85 998.40,1389.60"/>
    </edge>
    <edge id=":538_13" function="internal">
        <lane id=":538_13_0" index="0" speed="3.65" length="3.23" shape="1009.20,1400.80 1008.80,1400.00 1009.20,1399.20 1010.40,1398.40"/>
    </edge>
    <edge id=":538_4" function="internal">
        <lane id=":538_4_0" index="0" speed="6.51" length="9.03" shape="1004.80,1389.60 1005.15,1392.05 1006.20,1393.80 1007.95,1394.85 1010.40,1395.20"/>
        <lane id=":538_4_1" index="1" speed="8.00" length="14.19" shape="1001.60,1389.60 1002.15,1393.45 1003.80,1396.20 1006.55,1397.85 1010.40,1398.40"/>
    </edge>
    <edge id=":538_6" function="internal">
        <lane id=":538_6_0" index="0" speed="9.26" length="19.35" shape="1001.60,1389.60 1000.85,1394.85 998.60,1398.60 994.85,1400.85 989.60,1401.60"/>
    </edge>
    <edge id=":538_7" function="internal">
        <lane id=":538_7_0" index="0" speed="3.65" length="2.34" shape="1001.60,1389.60 1000.80,1390.80 1000.00,1391.20"/>
    </edge>
    <edge id=":538_14" function="internal">
        <lane id=":538_14_0" index="0" speed="3.65" length="2.34" shape="1000.00,1391.20 999.20,1390.80 998.40,1389.60"/>
    </edge>
    <edge id=":538_8" function="internal">
        <lane id=":538_8_0" index="0" speed="6.51" length="9.03" shape="989.60,1395.20 992.05,1394.85 993.80,1393.80 994.85,1392.05 995.20,1389.60"/>
    </edge>
    <edge id=":538_9" function="internal">
        <lane id=":538_9_0" index="0" speed="13.89" length="20.80" shape="989.60,1395.20 1010.40,1395.20"/>
        <lane id=":538_9_1" index="1" speed="13.89" length="20.80" shape="989.60,1398.40 1010.40,1398.40"/>
    </edge>
    <edge id=":538_11" function="internal">
        <lane id=":538_11_0" index="0" speed="3.65" length="1.44" shape="989.60,1398.40 990.80,1399.20"/>
    </edge>
    <edge id=":538_15" function="internal">
        <lane id=":538_15_0" index="0" speed="3.65" length="3.23" shape="990.80,1399.20 991.20,1400.00 990.80,1400.80 989.60,1401.60"/>
    </edge>
    <edge id=":942_0" function="internal">
        <lane id=":942_0_0" index="0" speed="6.51" length="9.03" shape="1395.20,1410.40 1394.85,1407.95 1393.80,1406.20 1392.05,1405.15 1389.60,1404.80"/>
    </edge>
    <edge id=":942_1" function="internal">
        <lane id=":942_1_0" index="0" speed="13.89" length="20.80" shape="1395.20,1410.40 1395.20,1389.60"/>
        <lane id=":942_1_1" index="1" speed="13.89" length="20.80" shape="1398.40,1410.40 1398.40,1389.60"/>
    </edge>
    <edge id=":942_3" function="internal">
        <lane id=":942_3_0" index="0" speed="3.65" length="1.44" shape="1398.40,1410.40 1399.20,1409.20"/>
    </edge>
    <edge id=":942_12" function="internal">
        <lane id=":942_12_0" index="0" speed="3.65" length="3.23" shape="1399.20,1409.20 1400.00,1408.80 1400.80,1409.20 1401.60,1410.40"/>
    </edge>
    <edge id=":942_4" function="internal">
        <lane id=":942_4_0" index="0" speed="13.89" length="20.80" shape="1404.80,1389.60 1404.80,1410.40"/>
        <lane id=":942_4_1" index="1" speed="13.89" length="20.80" shape="1401.60,1389.60 1401.60,1410.40"/>
    </edge>
    <edge id=":942_6" function="internal">
        <lane id=":942_6_0" index="0" speed="9.26" length="5.01" shape="1401.60,1389.60 1400.89,1394.56"/>
    </edge>
    <edge id=":942_7" function="internal">
        <lane id=":942_7_0" index="0" speed="3.65" length="1.44" shape="1401.60,1389.60 1400.80,1390.80"/>
    </edge>
    <edge id=":942_13" function="internal">
        <lane id=":942_13_0" index="0" speed="9.26" length="14.34" shape="1400.89,1394.56 1400.85,1394.85 1398.60,1398.60 1394.85,1400.85 1389.60,1401.60"/>
    </edge>
    <edge id=":942_14" function="internal">
        <lane id=":942_14_0" index="0" speed="3.65" length="3.23" shape="1400.80,1390.80 1400.00,1391.20 1399.20,1390.80 1398.40,1389.60"/>
    </edge>
    <edge id=":942_8" function="internal">
        <lane id=":942_8_0" index="0" speed="6.51" length="9.03" shape="1389.60,1395.20 1392.05,1394.85 1393.80,1393.80 1394.85,1392.05 1395.20,1389.60"/>
        <lane id=":942_8_1" index="1" speed="8.00" length="14.19" shape="1389.60,1398.40 1393.45,1397.85 1396.20,1396.20 1397.85,1393.45 1398.40,1389.60"/>
    </edge>
    <edge id=":942_10" function="internal">
        <lane id=":942_10_0" index="0" speed="9.26" length="19.35" shape="1389.60,1398.40 1394.85,1399.15 1398.60,1401.40 1400.85,1405.15 1401.60,1410.40"/>
    </edge>
    <edge id=":942_11" function="internal">
        <lane id=":942_11_0" index="0" speed="3.65" length="2.34" shape="1389.60,1398.40 1390.80,1399.20 1391.20,1400.00"/>
    </edge>
    <edge id=":942_15" function="internal">
        <lane id=":942_15_0" index="0" speed="3.65" length="2.34" shape="1391.20,1400.00 1390.80,1400.80 1389.60,1401.60"/>
    </edge>
    <edge id=":948_0" function="internal">
        <lane id=":948_0_0" index="0" speed="6.51" length="9.03" shape="595.20,1410.40 594.85,1407.95 593.80,1406.20 592.05,1405.15 589.60,1404.80"/>
        <lane id=":948_0_1" index="1" speed="8.00" length="14.19" shape="598.40,1410.40 597.85,1406.55 596.20,1403.80 593.45,1402.15 589.60,1401.60"/>
    </edge>
    <edge id=":948_2" function="internal">
        <lane id=":948_2_0" index="0" speed="9.26" length="19.35" shape="598.40,1410.40 599.15,1405.15 601.40,1401.40 605.15,1399.15 610.40,1398.40"/>
    </edge>
    <edge id=":948_3" function="internal">
        <lane id=":948_3_0" index="0" speed="3.65" length="2.34" shape="598.40,1410.40 599.20,1409.20 600.00,1408.80"/>
    </edge>
    <edge id=":948_12" function="internal">
        <lane id=":948_12_0" index="0" speed="3.65" length="2.34" shape="600.00,1408.80 600.80,1409.20 601.60,1410.40"/>
    </edge>
    <edge id=":948_4" function="internal">
        <lane id=":948_4_0" index="0" speed="6.51" length="9.03" shape="610.40,1404.80 607.95,1405.15 606.20,1406.20 605.15,1407.95 604.80,1410.40"/>
    </edge>
    <edge id=":948_5" function="internal">
        <lane id=":948_5_0" index="0" speed="13.89" length="20.80" shape="610.40,1404.80 589.60,1404.80"/>
        <lane id=":948_5_1" index="1" speed="13.89" length="20.80" shape="610.40,1401.60 589.60,1401.60"/>
    </edge>
    <edge id=":948_7" function="internal">
        <lane id=":948_7_0" index="0" speed="3.65" length="1.44" shape="610.40,1401.60 609.20,1400.80"/>
    </edge>
    <edge id=":948_13" function="internal">
        <lane id=":948_13_0" index="0" speed="3.65" length="3.23" shape="609.20,1400.80 608.80,1400.00 609.20,1399.20 610.40,1398.40"/>
    </edge>
    <edge id=":948_8" function="internal">
        <lane id=":948_8_0" index="0" speed="13.89" length="20.80" shape="589.60,1395.20 610.40,1395.20"/>
        <lane id=":948_8_1" index="1" speed="13.89" length="20.80" shape="589.60,1398.40 610.40,1398.40"/>
    </edge>
    <edge id=":948_10" function="internal">
        <lane id=":948_10_0" index="0" speed="9.26" length="5.01" shape="589.60,1398.40 594.56,1399.11"/>
    </edge>
    <edge id=":948_11" function="internal">
        <lane id=":948_11_0" index="0" speed="3.65" length="1.44" shape="589.60,1398.40 590.80,1399.20"/>
    </edge>
    <edge id=":948_14" function="internal">
        <lane id=":948_14_0" index="0" speed="9.26" length="14.34" shape="594.56,1399.11 594.85,1399.15 598.60,1401.40 600.85,1405.15 601.60,1410.40"/>
    </edge>
    <edge id=":948_15" function="internal">
        <lane id=":948_15_0" index="0" speed="3.65" length="3.23" shape="590.80,1399.20 591.20,1400.00 590.80,1400.80 589.60,1401.60"/>
    </edge>

    <edge id="-1092" from="337" to="942" priority="-1">
        <lane id="-1092_0" index="0" speed="13.89" length="389.60" shape="1404.80,1000.00 1404.80,1389.60"/>
        <lane id="-1092_1" index="1" speed="13.89" length="389.60" shape="1401.60,1000.00 1401.60,1389.60"/>
    </edge>
    <edge id="-1102" from="1101" to="942" priority="-1">
        <lane id="-1102_0" index="0" speed="13.89" length="183.20" shape="1395.20,1593.60 1395.20,1410.40"/>
        <lane id="-1102_1" index="1" speed="13.89" length="183.20" shape="1398.40,1593.60 1398.40,1410.40"/>
    </edge>
    <edge id="-1104" from="1103" to="948" priority="-1">
        <lane id="-1104_0" index="0" speed="13.89" length="389.60" shape="595.20,1800.00 595.20,1410.40"/>
        <lane id="-1104_1" index="1" speed="13.89" length="389.60" shape="598.40,1800.00 598.40,1410.40"/>
    </edge>
    <edge id="-1108" from="1107" to="948" priority="-1">
        <lane id="-1108_0" index="0" speed="13.89" length="183.20" shape="406.40,1395.20 589.60,1395.20"/>
        <lane id="-1108_1" index="1" speed="13.89" length="183.20" shape="406.40,1398.40 589.60,1398.40"/>
    </edge>
    <edge id="-1573" from="1572" to="1101" priority="-1">
        <lane id="-1573_0" index="0" speed="13.89" length="183.20" shape="1210.40,1595.20 1393.60,1595.20"/>
        <lane id="-1573_1" index="1" speed="13.89" length="183.20" shape="1210.40,1598.40 1393.60,1598.40"/>
    </edge>
    <edge id="-1677" from="1676" to="1107" priority="-1">
        <lane id="-1677_0" index="0" speed="13.89" length="193.60" shape="395.20,1600.00 395.20,1406.40"/>
        <lane id="-1677_1" index="1" speed="13.89" length="193.60" shape="398.40,1600.00 398.40,1406.40"/>
    </edge>
    <edge id="-1916" from="1572" to="1438" priority="-1">
        <lane id="-1916_0" index="0" speed="13.89" length="389.60" shape="1204.80,1610.40 1204.80,2000.00"/>
        <lane id="-1916_1" index="1" speed="13.89" length="389.60" shape="1201.60,1610.40 1201.60,2000.00"/>
    </edge>
    <edge id="-2054" from="2053" to="1572" priority="-1">
        <lane id="-2054_0" index="0" speed="13.89" length="389.60" shape="800.00,1595.20 1189.60,1595.20"/>
        <lane id="-2054_1" index="1" speed="13.89" length="389.60" shape="800.00,1598.40 1189.60,1598.40"/>
    </edge>
    <edge id="-539" from="538" to="484" priority="-1">
        <lane id="-539_0" index="0" speed="13.89" length="389.60" shape="995.20,1389.60 995.20,1000.00"/>
        <lane id="-539_1" index="1" speed="13.89" length="389.60" shape="998.40,1389.60 998.40,1000.00"/>
    </edge>
    <edge id="-943" from="942" to="538" priority="-1">
        <lane id="-943_0" index="0" speed="13.89" length="379.20" shape="1389.60,1404.80 1010.40,1404.80"/>
        <lane id="-943_1" index="1" speed="13.89" length="379.20" shape="1389.60,1401.60 1010.40,1401.60"/>
    </edge>
    <edge id="-949" from="948" to="538" priority="-1">
        <lane id="-949_0" index="0" speed="13.89" length="379.20" shape="610.40,1395.20 989.60,1395.20"/>
        <lane id="-949_1" index="1" speed="13.89" length="379.20" shape="610.40,1398.40 989.60,1398.40"/>
    </edge>
    <edge id="1092" from="942" to="337" priority="-1">
        <lane id="1092_0" index="0" speed="13.89" length="389.60" shape="1395.20,1389.60 1395.20,1000.00"/>
        <lane id="1092_1" index="1" speed="13.89" length="389.60" shape="1398.40,1389.60 1398.40,1000.00"/>
    </edge>
    <edge id="1102" from="942" to="1101" priority="-1">
        <lane id="1102_0" index="0" speed="13.89" length="183.20" shape="1404.80,1410.40 1404.80,1593.60"/>
        <lane id="1102_1" index="1" speed="13.89" length="183.20" shape="1401.60,1410.40 1401.60,1593.60"/>
    </edge>
    <edge id="1104" from="948" to="1103" priority="-1">
        <lane id="1104_0" index="0" speed="13.89" length="389.60" shape="604.80,1410.40 604.80,1800.00"/>
        <lane id="1104_1" index="1" speed="13.89" length="389.60" shape="601.60,1410.40 601.60,1800.00"/>
    </edge>
    <edge id="1108" from="948" to="1107" priority="-1">
        <lane id="1108_0" index="0" speed="13.89" length="183.20" shape="589.60,1404.80 406.40,1404.80"/>
        <lane id="1108_1" index="1" speed="13.89" length="183.20" shape="589.60,1401.60 406.40,1401.60"/>
    </edge>
    <edge id="1573" from="1101" to="1572" priority="-1">
        <lane id="1573_0" index="0" speed="13.89" length="183.20" shape="1393.60,1604.80 1210.40,1604.80"/>
        <lane id="1573_1" index="1" speed="13.89" length="183.20" shape="1393.60,1601.60 1210.40,1601.60"/>
    </edge>
    <edge id="1677" from="1107" to="1676" priority="-1">
        <lane id="1677_0" index="0" speed="13.89" length="193.60" shape="404.80,1406.40 404.80,1600.00"/>
        <lane id="1677_1" index="1" speed="13.89" length="193.60" shape="401.60,1406.40 401.60,1600.00"/>
    </edge>
    <edge id="1916" from="1438" to="1572" priority="-1">
        <lane id="1916_0" index="0" speed="13.89" length="389.60" shape="1195.20,2000.00 1195.20,1610.40"/>
        <lane id="1916_1" index="1" speed="13.89" length="389.60" shape="1198.40,2000.00 1198.40,1610.40"/>
    </edge>
    <edge id="2054" from="1572" to="2053" priority="-1">
        <lane id="2054_0" index="0" speed="13.89" length="389.60" shape="1189.60,1604.80 800.00,1604.80"/>
        <lane id="2054_1" index="1" speed="13.89" length="389.60" shape="1189.60,1601.60 800.00,1601.60"/>
    </edge>
    <edge id="539" from="484" to="538" priority="-1">
        <lane id="539_0" index="0" speed="13.89" length="389.60" shape="1004.80,1000.00 1004.80,1389.60"/>
        <lane id="539_1" index="1" speed="13.89" length="389.60" shape="1001.60,1000.00 1001.60,1389.60"/>
    </edge>
    <edge id="943" from="538" to="942" priority="-1">
        <lane id="943_0" index="0" speed="13.89" length="379.20" shape="1010.40,1395.20 1389.60,1395.20"/>
        <lane id="943_1" index="1" speed="13.89" length="379.20" shape="1010.40,1398.40 1389.60,1398.40"/>
    </edge>
    <edge id="949" from="538" to="948" priority="-1">
        <lane id="949_0" index="0" speed="13.89" length="379.20" shape="989.60,1404.80 610.40,1404.80"/>
        <lane id="949_1" index="1" speed="13.89" length="379.20" shape="989.60,1401.60 610.40,1401.60"/>
    </edge>

    <tlLogic id="1572" type="static" programID="0" offset="0">
        <phase duration="42" state="rrrrGGGgGGgg"/>
        <phase duration="3"  state="rrrrGyyyyyyy"/>
        <phase duration="42" state="GGGgGrrrrrrr"/>
        <phase duration="3"  state="yyyyGrrrrrrr"/>
    </tlLogic>
    <tlLogic id="538" type="static" programID="0" offset="0">
        <phase duration="42" state="GGggrrrrGGGg"/>
        <phase duration="3"  state="yyyyrrrrGyyy"/>
        <phase duration="42" state="rrrrGGGgGrrr"/>
        <phase duration="3"  state="rrrryyyyGrrr"/>
    </tlLogic>
    <tlLogic id="942" type="static" programID="0" offset="0">
        <phase duration="42" state="GGGgGGggrrrr"/>
        <phase duration="3"  state="Gyyyyyyyrrrr"/>
        <phase duration="42" state="GrrrrrrrGGGg"/>
        <phase duration="3"  state="Grrrrrrryyyy"/>
    </tlLogic>
    <tlLogic id="948" type="static" programID="0" offset="0">
        <phase duration="42" state="rrrrGGGgGGgg"/>
        <phase duration="3"  state="rrrrGyyyyyyy"/>
        <phase duration="42" state="GGGgGrrrrrrr"/>
        <phase duration="3"  state="yyyyGrrrrrrr"/>
    </tlLogic>

    <junction id="1101" type="priority" x="1400.00" y="1600.00" incLanes="1102_0 1102_1 -1573_0 -1573_1" intLanes=":1101_0_0 :1101_0_1 :1101_2_0 :1101_2_1" shape="1406.40,1593.60 1393.60,1593.60 1393.60,1606.40 1397.51,1606.04 1400.71,1604.98 1403.20,1603.20 1404.98,1600.71 1406.04,1597.51">
        <request index="0" response="0000" foes="0000" cont="0"/>
        <request index="1" response="0000" foes="0000" cont="0"/>
        <request index="2" response="0000" foes="0000" cont="0"/>
        <request index="3" response="0000" foes="0000" cont="0"/>
    </junction>
    <junction id="1103" type="priority" x="600.00" y="1800.00" incLanes="1104_0 1104_1" intLanes=":1103_0_0" shape="600.00,1800.00 606.40,1800.00 600.00,1800.00" fringe="outer">
        <request index="0" response="0" foes="0" cont="0"/>
    </junction>
    <junction id="1107" type="priority" x="400.00" y="1400.00" incLanes="-1677_0 -1677_1 1108_0 1108_1" intLanes=":1107_0_0 :1107_0_1 :1107_2_0 :1107_2_1" shape="393.60,1406.40 406.40,1406.40 406.40,1393.60 402.49,1393.96 399.29,1395.02 396.80,1396.80 395.02,1399.29 393.96,1402.49">
        <request index="0" response="0000" foes="0000" cont="0"/>
        <request index="1" response="0000" foes="0000" cont="0"/>
        <request index="2" response="0000" foes="0000" cont="0"/>
        <request index="3" response="0000" foes="0000" cont="0"/>
    </junction>
    <junction id="1221" type="dead_end" x="1400.00" y="1600.00" incLanes="" intLanes="" shape="1400.00,1600.00"/>
    <junction id="1438" type="dead_end" x="1200.00" y="2000.00" incLanes="-1916_0 -1916_1" intLanes="" shape="1200.00,2000.00 1206.40,2000.00 1200.00,2000.00"/>
    <junction id="1572" type="traffic_light" x="1200.00" y="1600.00" incLanes="1916_0 1916_1 1573_0 1573_1 -2054_0 -2054_1" intLanes=":1572_0_0 :1572_0_1 :1572_2_0 :1572_12_0 :1572_4_0 :1572_5_0 :1572_5_1 :1572_13_0 :1572_8_0 :1572_8_1 :1572_14_0 :1572_15_0" shape="1193.60,1610.40 1206.40,1610.40 1206.84,1608.18 1207.40,1607.40 1208.18,1606.84 1209.18,1606.51 1210.40,1606.40 1210.40,1593.60 1189.60,1593.60 1189.60,1606.40 1191.82,1606.84 1192.60,1607.40 1193.16,1608.18 1193.49,1609.18">
        <request index="0"  response="000001100000" foes="100001100000" cont="0"/>
        <request index="1"  response="000001100000" foes="100001100000" cont="0"/>
        <request index="2"  response="011101100000" foes="011111100000" cont="0"/>
        <request index="3"  response="010000000000" foes="010000000000" cont="1"/>
        <request index="4"  response="000000000000" foes="000000000000" cont="0"/>
        <request index="5"  response="000000000000" foes="110000000111" cont="0"/>
        <request index="6"  response="000000000000" foes="110000000111" cont="0"/>
        <request index="7"  response="001100000100" foes="001100000100" cont="1"/>
        <request index="8"  response="000000000000" foes="000010000100" cont="0"/>
        <request index="9"  response="000000000000" foes="000010000100" cont="0"/>
        <request index="10" response="000001100000" foes="000001101100" cont="1"/>
        <request index="11" response="000001100011" foes="000001100011" cont="1"/>
    </junction>
    <junction id="1676" type="priority" x="400.00" y="1600.00" incLanes="1677_0 1677_1" intLanes=":1676_0_0" shape="400.00,1600.00 406.40,1600.00 400.00,1600.00" fringe="outer">
        <request index="0" response="0" foes="0" cont="0"/>
    </junction>
    <junction id="2053" type="priority" x="800.00" y="1600.00" incLanes="2054_0 2054_1" intLanes=":2053_0_0" shape="800.00,1600.00 800.00,1606.40 800.00,1600.00">
        <request index="0" response="0" foes="0" cont="0"/>
    </junction>
    <junction id="337" type="priority" x="1400.00" y="1000.00" incLanes="1092_0 1092_1" intLanes=":337_0_0" shape="1400.00,1000.00 1393.60,1000.00 1400.00,1000.00">
        <request index="0" response="0" foes="0" cont="0"/>
    </junction>
    <junction id="484" type="priority" x="1000.00" y="1000.00" incLanes="-539_0 -539_1" intLanes=":484_0_0" shape="1000.00,1000.00 993.60,1000.00 1000.00,1000.00">
        <request index="0" response="0" foes="0" cont="0"/>
    </junction>
    <junction id="538" type="traffic_light" x="1000.00" y="1400.00" incLanes="-943_0 -943_1 539_0 539_1 -949_0 -949_1" intLanes=":538_0_0 :538_0_1 :538_12_0 :538_13_0 :538_4_0 :538_4_1 :538_6_0 :538_14_0 :538_8_0 :538_9_0 :538_9_1 :538_15_0" shape="1010.40,1406.40 1010.40,1393.60 1008.18,1393.16 1007.40,1392.60 1006.84,1391.82 1006.51,1390.82 1006.40,1389.60 993.60,1389.60 993.16,1391.82 992.60,1392.60 991.82,1393.16 990.82,1393.49 989.60,1393.60 989.60,1406.40">
        <request index="0"  response="000000000000" foes="100001000000" cont="0"/>
        <request index="1"  response="000000000000" foes="100001000000" cont="0"/>
        <request index="2"  response="011000000000" foes="011011000000" cont="1"/>
        <request index="3"  response="011000110000" foes="011000110000" cont="1"/>
        <request index="4"  response="011000000000" foes="011000001000" cont="0"/>
        <request index="5"  response="011000000000" foes="011000001000" cont="0"/>
        <request index="6"  response="011000000111" foes="111000000111" cont="0"/>
        <request index="7"  response="000000000100" foes="000000000100" cont="1"/>
        <request index="8"  response="000000000000" foes="000000000000" cont="0"/>
        <request index="9"  response="000000000000" foes="000001111100" cont="0"/>
        <request index="10" response="000000000000" foes="000001111100" cont="0"/>
        <request index="11" response="000001000011" foes="000001000011" cont="1"/>
    </junction>
    <junction id="942" type="traffic_light" x="1400.00" y="1400.00" incLanes="-1102_0 -1102_1 -1092_0 -1092_1 943_0 943_1" intLanes=":942_0_0 :942_1_0 :942_1_1 :942_12_0 :942_4_0 :942_4_1 :942_13_0 :942_14_0 :942_8_0 :942_8_1 :942_10_0 :942_15_0" shape="1393.60,1410.40 1406.40,1410.40 1406.40,1389.60 1393.60,1389.60 1393.16,1391.82 1392.60,1392.60 1391.82,1393.16 1390.82,1393.49 1389.60,1393.60 1389.60,1406.40 1391.82,1406.84 1392.60,1407.40 1393.16,1408.18 1393.49,1409.18">
        <request index="0"  response="000000000000" foes="000000000000" cont="0"/>
        <request index="1"  response="000000000000" foes="011111000000" cont="0"/>
        <request index="2"  response="000000000000" foes="011111000000" cont="0"/>
        <request index="3"  response="010000110000" foes="010000110000" cont="1"/>
        <request index="4"  response="000000000000" foes="010000001000" cont="0"/>
        <request index="5"  response="000000000000" foes="010000001000" cont="0"/>
        <request index="6"  response="000000000110" foes="110000000110" cont="1"/>
        <request index="7"  response="001100000110" foes="001100000110" cont="1"/>
        <request index="8"  response="000000000110" foes="000010000110" cont="0"/>
        <request index="9"  response="000000000110" foes="000010000110" cont="0"/>
        <request index="10" response="000001110110" foes="000001111110" cont="0"/>
        <request index="11" response="000001000000" foes="000001000000" cont="1"/>
    </junction>
    <junction id="948" type="traffic_light" x="600.00" y="1400.00" incLanes="-1104_0 -1104_1 949_0 949_1 -1108_0 -1108_1" intLanes=":948_0_0 :948_0_1 :948_2_0 :948_12_0 :948_4_0 :948_5_0 :948_5_1 :948_13_0 :948_8_0 :948_8_1 :948_14_0 :948_15_0" shape="593.60,1410.40 606.40,1410.40 606.84,1408.18 607.40,1407.40 608.18,1406.84 609.18,1406.51 610.40,1406.40 610.40,1393.60 589.60,1393.60 589.60,1406.40 591.82,1406.84 592.60,1407.40 593.16,1408.18 593.49,1409.18">