<?xml version="1.0" encoding="UTF-8"?>

<!-- generated on 2025-03-09 19:55:43.018011 by randomTrips.py v1_19_0+1770-8bb5c24c187
<configuration>
    <net-file value="random_subnetwork_4.net.xml"/>
    <output-trip-file value="random_subnetwork_4_medium.trips.xml"/>
    <fringe-factor value="100"/>
    <remove-loops value="True"/>
    <validate value="True"/>
    <period value="11.5157"/>
    <random-depart value="True"/>
    <binomial value="4"/>
</configuration>
-->

<!-- generated on 2025-03-09 19:55:43 by Eclipse SUMO duarouter Version v1_19_0+1770-8bb5c24c187
<configuration xmlns:xsi="http://www.w3.org/2001/XMLSchema-instance" xsi:noNamespaceSchemaLocation="http://sumo.dlr.de/xsd/duarouterConfiguration.xsd">

    <input>
        <net-file value="random_subnetwork_4.net.xml"/>
        <route-files value="random_subnetwork_4_medium.trips.xml"/>
    </input>

    <output>
        <output-file value="random_subnetwork_4_medium.trips.xml.tmp"/>
        <alternatives-output value="NUL"/>
        <write-trips value="true"/>
    </output>

    <processing>
        <remove-loops value="true"/>
    </processing>

    <time>
        <begin value="0.0"/>
        <end value="3600.0"/>
    </time>

    <report>
        <no-warnings value="true"/>
        <ignore-errors value="true"/>
        <no-step-log value="true"/>
    </report>

</configuration>
-->

<routes xmlns:xsi="http://www.w3.org/2001/XMLSchema-instance" xsi:noNamespaceSchemaLocation="http://sumo.dlr.de/xsd/routes_file.xsd">
    <trip id="0" depart="4.00" from="833" to="2038"/>
    <trip id="1" depart="24.00" from="-2042" to="2038"/>
    <trip id="2" depart="30.00" from="-2038" to="-833"/>
    <trip id="3" depart="65.00" from="833" to="1559"/>
    <trip id="4" depart="70.00" from="833" to="2038"/>
    <trip id="5" depart="71.00" from="-1559" to="2042"/>
    <trip id="6" depart="89.00" from="833" to="2038"/>
    <trip id="7" depart="95.00" from="-2038" to="1559"/>
    <trip id="8" depart="102.00" from="1561" to="2042"/>
    <trip id="9" depart="115.00" from="-2038" to="2042"/>
    <trip id="10" depart="124.00" from="-2042" to="2042"/>
    <trip id="11" depart="126.00" from="-1559" to="-833"/>
    <trip id="12" depart="143.00" from="833" to="-833"/>
    <trip id="13" depart="152.00" from="-2042" to="1559"/>
    <trip id="14" depart="164.00" from="-2038" to="2038"/>
    <trip id="15" depart="213.00" from="833" to="2042"/>
    <trip id="16" depart="231.00" from="-2042" to="1559"/>
    <trip id="17" depart="244.00" from="833" to="-833"/>
    <trip id="18" depart="247.00" from="833" to="-833"/>
    <trip id="19" depart="249.00" from="833" to="-833"/>
    <trip id="20" depart="273.00" from="833" to="2038"/>
    <trip id="21" depart="281.00" from="-2038" to="-833"/>
    <trip id="22" depart="282.00" from="-2042" to="-833"/>
    <trip id="23" depart="284.00" from="833" to="2042"/>
    <trip id="24" depart="286.00" from="-2038" to="2042"/>
    <trip id="25" depart="335.00" from="-1559" to="1559"/>
    <trip id="26" depart="339.00" from="-2042" to="-833"/>
    <trip id="27" depart="343.00" from="833" to="1559"/>
    <trip id="28" depart="420.00" from="-2038" to="-833"/>
    <trip id="29" depart="437.00" from="-2042" to="2042"/>
    <trip id="30" depart="444.00" from="-2042" to="-833"/>
    <trip id="31" depart="453.00" from="-2042" to="2038"/>
    <trip id="32" depart="474.00" from="-1559" to="1559"/>
    <trip id="33" depart="478.00" from="-1559" to="-833"/>
    <trip id="34" depart="495.00" from="833" to="2042"/>
    <trip id="35" depart="510.00" from="-2042" to="1559"/>
    <trip id="36" depart="512.00" from="-2042" to="-833"/>
    <trip id="37" depart="513.00" from="833" to="2038"/>
    <trip id="38" depart="519.00" from="-1559" to="1559"/>
    <trip id="39" depart="535.00" from="-2038" to="1559"/>
    <trip id="40" depart="562.00" from="-2038" to="2038"/>
    <trip id="41" depart="586.00" from="-1559" to="2042"/>
    <trip id="42" depart="608.00" from="833" to="2038"/>
    <trip id="43" depart="614.00" from="833" to="-833"/>
    <trip id="44" depart="618.00" from="-2038" to="-833"/>
    <trip id="45" depart="619.00" from="-2042" to="2042"/>
    <trip id="46" depart="623.00" from="-2042" to="1559"/>
    <trip id="47" depart="635.00" from="-1559" to="1559"/>
    <trip id="48" depart="659.00" from="-1559" to="2038"/>
    <trip id="49" depart="662.00" from="-2038" to="-833"/>
    <trip id="50" depart="663.00" from="-2042" to="2042"/>
    <trip id="51" depart="680.00" from="833" to="2042"/>
    <trip id="52" depart="705.00" from="833" to="-833"/>
    <trip id="53" depart="721.00" from="-2038" to="2038"/>
    <trip id="54" depart="758.00" from="833" to="1559"/>
    <trip id="55" depart="773.00" from="833" to="2042"/>
    <trip id="56" depart="773.00" from="833" to="2038"/>
    <trip id="57" depart="774.00" from="1561" to="2042"/>
    <trip id="58" depart="799.00" from="-2038" to="2042"/>
    <trip id="59" depart="802.00" from="-2038" to="2042"/>
    <trip id="60" depart="813.00" from="-2042" to="1559"/>
    <trip id="61" depart="821.00" from="-2042" to="2042"/>
    <trip id="62" depart="848.00" from="-1559" to="2038"/>
    <trip id="63" depart="882.00" from="1561" to="2038"/>
    <trip id="64" depart="896.00" from="-2042" to="1559"/>
    <trip id="65" depart="902.00" from="-1559" to="2038"/>
    <trip id="66" depart="908.00" from="-2042" to="2038"/>
    <trip id="67" depart="916.00" from="-2042" to="2038"/>
    <trip id="68" depart="927.00" from="-1559" to="-833"/>
    <trip id="69" depart="932.00" from="-2042" to="-833"/>
    <trip id="70" depart="956.00" from="-2042" to="2038"/>
    <trip id="71" depart="972.00" from="-2042" to="2038"/>
    <trip id="72" depart="981.00" from="-1559" to="-833"/>
    <trip id="73" depart="988.00" from="-1559" to="2042"/>
    <trip id="74" depart="1001.00" from="833" to="-833"/>
    <trip id="75" depart="1014.00" from="-1559" to="2038"/>
    <trip id="76" depart="1027.00" from="-1559" to="2042"/>
    <trip id="77" depart="1049.00" from="833" to="2042"/>
    <trip id="78" depart="1049.00" from="833" to="2042"/>
    <trip id="79" depart="1050.00" from="-2038" to="1559"/>
    <trip id="80" depart="1050.00" from="-2038" to="1559"/>
    <trip id="81" depart="1057.00" from="-1559" to="2038"/>
    <trip id="82" depart="1071.00" from="-1559" to="2042"/>
    <trip id="83" depart="1082.00" from="-2042" to="1559"/>
    <trip id="84" depart="1083.00" from="833" to="2042"/>
    <trip id="85" depart="1107.00" from="833" to="2038"/>
    <trip id="86" depart="1117.00" from="833" to="1559"/>
    <trip id="87" depart="1133.00" from="-2042" to="-833"/>
    <trip id="88" depart="1136.00" from="-2042" to="2038"/>
    <trip id="89" depart="1138.00" from="-2038" to="1559"/>
    <trip id="90" depart="1139.00" from="833" to="2038"/>
    <trip id="91" depart="1142.00" from="-1559" to="2038"/>
    <trip id="92" depart="1163.00" from="-2038" to="1559"/>
    <trip id="93" depart="1187.00" from="833" to="-833"/>
    <trip id="94" depart="1205.00" from="-1559" to="2038"/>
    <trip id="95" depart="1207.00" from="-1559" to="1559"/>
    <trip id="96" depart="1208.00" from="-2042" to="1559"/>
    <trip id="97" depart="1227.00" from="833" to="2038"/>
    <trip id="98" depart="1231.00" from="-2042" to="2038"/>
    <trip id="99" depart="1257.00" from="-1559" to="-833"/>
    <trip id="100" depart="1261.00" from="833" to="1559"/>
    <trip id="101" depart="1268.00" from="-2042" to="1559"/>
    <trip id="102" depart="1287.00" from="-1559" to="-833"/>
    <trip id="103" depart="1297.00" from="833" to="1559"/>
    <trip id="104" depart="1304.00" from="-1559" to="-833"/>
    <trip id="105" depart="1322.00" from="833" to="2042"/>
    <trip id="106" depart="1347.00" from="-2038" to="-833"/>
    <trip id="107" depart="1352.00" from="-1559" to="-833"/>
    <trip id="108" depart="1374.00" from="833" to="-833"/>
    <trip id="109" depart="1377.00" from="-2042" to="2042"/>
    <trip id="110" depart="1414.00" from="-2042" to="2042"/>
    <trip id="111" depart="1436.00" from="-2038" to="2042"/>
    <trip id="112" depart="1449.00" from="-2042" to="1559"/>
    <trip id="113" depart="1467.00" from="-1559" to="-833"/>
    <trip id="114" depart="1505.00" from="-2038" to="1559"/>
    <trip id="115" depart="1518.00" from="-2042" to="2042"/>
    <trip id="116" depart="1530.00" from="833" to="-833"/>
    <trip id="117" depart="1542.00" from="833" to="2038"/>
    <trip id="118" depart="1573.00" from="-1559" to="1559"/>
    <trip id="119" depart="1599.00" from="833" to="2038"/>
    <trip id="120" depart="1623.00" from="-1559" to="-833"/>
    <trip id="121" depart="1627.00" from="-1559" to="-833"/>
    <trip id="122" depart="1633.00" from="-2042" to="2038"/>
    <trip id="123" depart="1640.00" from="-2038" to="-833"/>
    <trip id="124" depart="1648.00" from="833" to="1559"/>
    <trip id="125" depart="1666.00" from="833" to="2042"/>
    <trip id="126" depart="1671.00" from="-2038" to="2038"/>
    <trip id="127" depart="1712.00" from="833" to="-833"/>
    <trip id="128" depart="1729.00" from="-2038" to="2042"/>
    <trip id="129" depart="1730.00" from="833" to="1559"/>
    <trip id="130" depart="1738.00" from="-2042" to="2038"/>
    <trip id="131" depart="1738.00" from="-2038" to="2042"/>
    <trip id="132" depart="1743.00" from="-2038" to="2042"/>
    <trip id="133" depart="1744.00" from="-2038" to="2042"/>
    <trip id="134" depart="1758.00" from="-1559" to="-833"/>
    <trip id="135" depart="1771.00" from="-2038" to="2042"/>
    <trip id="136" depart="1779.00" from="-2042" to="2038"/>
    <trip id="137" depart="1786.00" from="-1559" to="-833"/>
    <trip id="138" depart="1792.00" from="833" to="2042"/>
    <trip id="139" depart="1793.00" from="-2042" to="1559"/>
    <trip id="140" depart="1819.00" from="-2038" to="2042"/>
    <trip id="141" depart="1827.00" from="833" to="2042"/>
    <trip id="142" depart="1842.00" from="-1559" to="-833"/>
    <trip id="143" depart="1856.00" from="-1559" to="2042"/>
    <trip id="144" depart="1859.00" from="-1559" to="1559"/>
    <trip id="145" depart="1864.00" from="833" to="2042"/>
    <trip id="146" depart="1891.00" from="833" to="-833"/>
    <trip id="147" depart="1899.00" from="-2038" to="2042"/>
    <trip id="148" depart="1903.00" from="-2042" to="2038"/>
    <trip id="149" depart="1913.00" from="833" to="2038"/>
    <trip id="150" depart="1920.00" from="-1559" to="2038"/>
    <trip id="151" depart="1928.00" from="-2042" to="2042"/>
    <trip id="152" depart="1929.00" from="-2042" to="2042"/>
    <trip id="153" depart="1938.00" from="-2038" to="-833"/>
    <trip id="154" depart="1958.00" from="-1559" to="2038"/>
    <trip id="155" depart="1977.00" from="-2042" to="2038"/>
    <trip id="156" depart="1991.00" from="-2042" to="2038"/>
    <trip id="157" depart="1998.00" from="-2038" to="2042"/>
    <trip id="158" depart="2013.00" from="-2038" to="2042"/>
    <trip id="159" depart="2020.00" from="-2042" to="-833"/>
    <trip id="160" depart="2043.00" from="833" to="-833"/>
    <trip id="161" depart="2056.00" from="-1559" to="1559"/>
    <trip id="162" depart="2072.00" from="-2042" to="2042"/>
    <trip id="163" depart="2094.00" from="-2038" to="2038"/>
    <trip id="164" depart="2105.00" from="-1559" to="-833"/>
    <trip id="165" depart="2109.00" from="833" to="2042"/>
    <trip id="166" depart="2111.00" from="833" to="2042"/>
    <trip id="167" depart="2126.00" from="833" to="-833"/>
    <trip id="168" depart="2135.00" from="833" to="-833"/>
    <trip id="169" depart="2148.00" from="833" to="2038"/>
    <trip id="170" depart="2160.00" from="-2038" to="1559"/>
    <trip id="171" depart="2183.00" from="833" to="1559"/>
    <trip id="172" depart="2200.00" from="833" to="2038"/>
    <trip id="173" depart="2204.00" from="-2038" to="2042"/>
    <trip id="174" depart="2208.00" from="833" to="-833"/>
    <trip id="175" depart="2221.00" from="-2038" to="-833"/>
    <trip id="176" depart="2224.00" from="-1559" to="1559"/>
    <trip id="177" depart="2244.00" from="-1559" to="2038"/>
    <trip id="178" depart="2263.00" from="-2038" to="1559"/>
    <trip id="179" depart="2278.00" from="-1559" to="1559"/>
    <trip id="180" depart="2291.00" from="-1559" to="2042"/>
    <trip id="181" depart="2313.00" from="-2038" to="1559"/>
    <trip id="182" depart="2320.00" from="-2038" to="2038"/>
    <trip id="183" depart="2322.00" from="833" to="2042"/>
    <trip id="184" depart="2333.00" from="-1559" to="1559"/>
    <trip id="185" depart="2335.00" from="-1561" to="1559"/>
    <trip id="186" depart="2351.00" from="833" to="2042"/>
    <trip id="187" depart="2357.00" from="-2038" to="2038"/>
    <trip id="188" depart="2358.00" from="-2042" to="-833"/>
    <trip id="189" depart="2368.00" from="-2038" to="2038"/>
    <trip id="190" depart="2410.00" from="-1559" to="2042"/>
    <trip id="191" depart="2417.00" from="-2042" to="2042"/>
    <trip id="192" depart="2441.00" from="833" to="2042"/>
    <trip id="193" depart="2478.00" from="-1559" to="1559"/>
    <trip id="194" depart="2500.00" from="833" to="-833"/>
    <trip id="195" depart="2510.00" from="-1559" to="1559"/>
    <trip id="196" depart="2513.00" from="-1559" to="2038"/>
    <trip id="197" depart="2529.00" from="-2042" to="2042"/>
    <trip id="198" depart="2535.00" from="833" to="-833"/>
    <trip id="199" depart="2540.00" from="833" to="2038"/>
    <trip id="200" depart="2545.00" from="-2038" to="1559"/>
    <trip id="201" depart="2554.00" from="-2042" to="2042"/>
    <trip id="202" depart="2567.00" from="-2038" to="-833"/>
    <trip id="203" depart="2590.00" from="-2038" to="2038"/>
    <trip id="204" depart="2590.00" from="-2038" to="-833"/>
    <trip id="205" depart="2600.00" from="833" to="2042"/>
    <trip id="206" depart="2606.00" from="-2038" to="1559"/>
    <trip id="207" depart="2625.00" from="-2038" to="1559"/>
    <trip id="208" depart="2636.00" from="-1559" to="2042"/>
    <trip id="209" depart="2653.00" from="-2038" to="2038"/>
    <trip id="210" depart="2664.00" from="-2038" to="2038"/>
    <trip id="211" depart="2679.00" from="-2038" to="-833"/>
    <trip id="212" depart="2680.00" from="-2038" to="-833"/>
    <trip id="213" depart="2683.00" from="-2038" to="1559"/>
    <trip id="214" depart="2712.00" from="-1559" to="2038"/>
    <trip id="215" depart="2735.00" from="833" to="1559"/>
    <trip id="216" depart="2753.00" from="833" to="2038"/>
    <trip id="217" depart="2770.00" from="-2042" to="-833"/>
    <trip id="218" depart="2789.00" from="-2038" to="-833"/>
    <trip id="219" depart="2797.00" from="-2042" to="-833"/>
    <trip id="220" depart="2798.00" from="-1559" to="1559"/>
    <trip id="221" depart="2814.00" from="833" to="1559"/>
    <trip id="222" depart="2828.00" from="833" to="-833"/>
    <trip id="223" depart="2854.00" from="-2042" to="1559"/>
    <trip id="224" depart="2862.00" from="1561" to="2038"/>
    <trip id="225" depart="2869.00" from="-1559" to="1559"/>
    <trip id="226" depart="2912.00" from="-1559" to="-833"/>
    <trip id="227" depart="2932.00" from="-2042" to="2038"/>
    <trip id="228" depart="2941.00" from="-2042" to="2042"/>
    <trip id="229" depart="2943.00" from="-2038" to="-833"/>
    <trip id="230" depart="2971.00" from="833" to="-833"/>
    <trip id="231" depart="2972.00" from="-1559" to="2042"/>
    <trip id="232" depart="3007.00" from="833" to="-833"/>
    <trip id="233" depart="3025.00" from="833" to="-833"/>
    <trip id="234" depart="3034.00" from="-2042" to="2042"/>
    <trip id="235" depart="3040.00" from="833" to="1559"/>
    <trip id="236" depart="3046.00" from="-2038" to="2042"/>
    <trip id="237" depart="3054.00" from="-1559" to="2042"/>
    <trip id="238" depart="3059.00" from="833" to="-833"/>
    <trip id="239" depart="3062.00" from="-1559" to="-833"/>
    <trip id="240" depart="3071.00" from="-2042" to="-833"/>
    <trip id="241" depart="3080.00" from="833" to="2038"/>
    <trip id="242" depart="3082.00" from="-2038" to="1559"/>
    <trip id="243" depart="3087.00" from="-2038" to="-833"/>
    <trip id="244" depart="3096.00" from="-2042" to="-833"/>
    <trip id="245" depart="3106.00" from="-2038" to="-833"/>
    <trip id="246" depart="3126.00" from="833" to="1559"/>
    <trip id="247" depart="3128.00" from="-2042" to="2038"/>
    <trip id="248" depart="3143.00" from="-1559" to="-833"/>
    <trip id="249" depart="3143.00" from="-2038" to="-1085"/>
    <trip id="250" depart="3154.00" from="833" to="2038"/>
    <trip id="251" depart="3178.00" from="833" to="1561"/>
    <trip id="252" depart="3194.00" from="-1559" to="2042"/>
    <trip id="253" depart="3200.00" from="833" to="2042"/>
    <trip id="254" depart="3205.00" from="-2042" to="2038"/>
    <trip id="255" depart="3213.00" from="-1559" to="2042"/>
    <trip id="256" depart="3214.00" from="833" to="-833"/>
    <trip id="257" depart="3246.00" from="-1559" to="2042"/>
    <trip id="258" depart="3253.00" from="-2038" to="2038"/>
    <trip id="259" depart="3288.00" from="833" to="2042"/>
    <trip id="260" depart="3288.00" from="-2042" to="-833"/>
    <trip id="261" depart="3292.00" from="-2038" to="2042"/>
    <trip id="262" depart="3299.00" from="-2038" to="2038"/>
    <trip id="263" depart="3301.00" from="-1559" to="1559"/>
    <trip id="264" depart="3320.00" from="-1559" to="2042"/>
    <trip id="265" depart="3341.00" from="-2042" to="1559"/>
    <trip id="266" depart="3342.00" from="-1559" to="-833"/>
    <trip id="267" depart="3365.00" from="833" to="2042"/>
    <trip id="268" depart="3370.00" from="-2038" to="2042"/>
    <trip id="269" depart="3388.00" from="-1559" to="2038"/>
    <trip id="270" depart="3393.00" from="-1559" to="2042"/>
    <trip id="271" depart="3407.00" from="-2038" to="2042"/>
    <trip id="272" depart="3430.00" from="-1559" to="2038"/>
    <trip id="273" depart="3432.00" from="-2042" to="1559"/>
    <trip id="274" depart="3442.00" from="-1559" to="-833"/>
    <trip id="275" depart="3461.00" from="833" to="1559"/>
    <trip id="276" depart="3462.00" from="-1559" to="-833"/>
    <trip id="277" depart="3479.00" from="-2042" to="2042"/>
    <trip id="278" depart="3509.00" from="-1559" to="2038"/>
    <trip id="279" depart="3520.00" from="-2038" to="-833"/>
    <trip id="280" depart="3527.00" from="-2042" to="2038"/>
    <trip id="281" depart="3530.00" from="-2042" to="1559"/>
    <trip id="282" depart="3560.00" from="-1559" to="2042"/>
    <trip id="283" depart="3565.00" from="-2042" to="-833"/>
    <trip id="284" depart="3577.00" from="-1559" to="-833"/>
    <trip id="285" depart="3590.00" from="833" to="2038"/>
</routes>
