<?xml version="1.0" encoding="UTF-8"?>

<!-- generated on 2025-03-04 13:51:45 by Eclipse SUMO netedit Version 1.20.0
<configuration xmlns:xsi="http://www.w3.org/2001/XMLSchema-instance" xsi:noNamespaceSchemaLocation="http://sumo.dlr.de/xsd/neteditConfiguration.xsd">

    <input>
        <sumo-net-file value="/Users/rohitbokade/Desktop/random_subnetworks/random_subnetwork_2.net.xml"/>
    </input>

    <output>
        <output-file value="/Users/rohitbokade/Desktop/random_subnetworks/random_subnetwork_2.net.xml"/>
    </output>

    <processing>
        <geometry.min-radius.fix.railways value="false"/>
        <geometry.max-grade.fix value="false"/>
        <offset.disable-normalization value="true"/>
        <lefthand value="0"/>
    </processing>

    <junctions>
        <no-turnarounds value="true"/>
        <junctions.corner-detail value="5"/>
        <junctions.limit-turn-speed value="5.50"/>
        <rectangular-lane-cut value="0"/>
    </junctions>

    <pedestrian>
        <walkingareas value="0"/>
    </pedestrian>

</configuration>
-->

<net version="1.20" junctionCornerDetail="5" limitTurnSpeed="5.50" xmlns:xsi="http://www.w3.org/2001/XMLSchema-instance" xsi:noNamespaceSchemaLocation="http://sumo.dlr.de/xsd/net_file.xsd">

    <location netOffset="2000.00,1800.00" convBoundary="1400.00,600.00,2000.00,1800.00" origBoundary="-2000.00,-1800.00,800.00,1200.00" projParameter="!"/>

    <edge id=":1_0" function="internal">
        <lane id=":1_0_0" index="0" speed="3.65" length="4.67" shape="2001.60,1800.00 2000.80,1801.20 2000.00,1801.60 1999.20,1801.20 1998.40,1800.00"/>
    </edge>
    <edge id=":153_0" function="internal">
        <lane id=":153_0_0" index="0" speed="13.89" length="20.80" shape="1810.40,1404.80 1789.60,1404.80"/>
        <lane id=":153_0_1" index="1" speed="13.89" length="20.80" shape="1810.40,1401.60 1789.60,1401.60"/>
    </edge>
    <edge id=":153_2" function="internal">
        <lane id=":153_2_0" index="0" speed="9.26" length="5.01" shape="1810.40,1401.60 1805.44,1400.89"/>
    </edge>
    <edge id=":153_3" function="internal">
        <lane id=":153_3_0" index="0" speed="3.65" length="1.44" shape="1810.40,1401.60 1809.20,1400.80"/>
    </edge>
    <edge id=":153_12" function="internal">
        <lane id=":153_12_0" index="0" speed="9.26" length="14.34" shape="1805.44,1400.89 1805.15,1400.85 1801.40,1398.60 1799.15,1394.85 1798.40,1389.60"/>
    </edge>
    <edge id=":153_13" function="internal">
        <lane id=":153_13_0" index="0" speed="3.65" length="3.23" shape="1809.20,1400.80 1808.80,1400.00 1809.20,1399.20 1810.40,1398.40"/>
    </edge>
    <edge id=":153_4" function="internal">
        <lane id=":153_4_0" index="0" speed="6.51" length="9.03" shape="1804.80,1389.60 1805.15,1392.05 1806.20,1393.80 1807.95,1394.85 1810.40,1395.20"/>
        <lane id=":153_4_1" index="1" speed="8.00" length="14.19" shape="1801.60,1389.60 1802.15,1393.45 1803.80,1396.20 1806.55,1397.85 1810.40,1398.40"/>
    </edge>
    <edge id=":153_6" function="internal">
        <lane id=":153_6_0" index="0" speed="9.26" length="19.35" shape="1801.60,1389.60 1800.85,1394.85 1798.60,1398.60 1794.85,1400.85 1789.60,1401.60"/>
    </edge>
    <edge id=":153_7" function="internal">
        <lane id=":153_7_0" index="0" speed="3.65" length="2.34" shape="1801.60,1389.60 1800.80,1390.80 1800.00,1391.20"/>
    </edge>
    <edge id=":153_14" function="internal">
        <lane id=":153_14_0" index="0" speed="3.65" length="2.34" shape="1800.00,1391.20 1799.20,1390.80 1798.40,1389.60"/>
    </edge>
    <edge id=":153_8" function="internal">
        <lane id=":153_8_0" index="0" speed="6.51" length="9.03" shape="1789.60,1395.20 1792.05,1394.85 1793.80,1393.80 1794.85,1392.05 1795.20,1389.60"/>
    </edge>
    <edge id=":153_9" function="internal">
        <lane id=":153_9_0" index="0" speed="13.89" length="20.80" shape="1789.60,1395.20 1810.40,1395.20"/>
        <lane id=":153_9_1" index="1" speed="13.89" length="20.80" shape="1789.60,1398.40 1810.40,1398.40"/>
    </edge>
    <edge id=":153_11" function="internal">
        <lane id=":153_11_0" index="0" speed="3.65" length="1.44" shape="1789.60,1398.40 1790.80,1399.20"/>
    </edge>
    <edge id=":153_15" function="internal">
        <lane id=":153_15_0" index="0" speed="3.65" length="3.23" shape="1790.80,1399.20 1791.20,1400.00 1790.80,1400.80 1789.60,1401.60"/>
    </edge>
    <edge id=":2_0" function="internal">
        <lane id=":2_0_0" index="0" speed="6.51" length="9.03" shape="1995.20,1410.40 1994.85,1407.95 1993.80,1406.20 1992.05,1405.15 1989.60,1404.80"/>
    </edge>
    <edge id=":2_1" function="internal">
        <lane id=":2_1_0" index="0" speed="13.89" length="20.80" shape="1995.20,1410.40 1995.20,1389.60"/>
        <lane id=":2_1_1" index="1" speed="13.89" length="20.80" shape="1998.40,1410.40 1998.40,1389.60"/>
    </edge>
    <edge id=":2_3" function="internal">
        <lane id=":2_3_0" index="0" speed="3.65" length="1.44" shape="1998.40,1410.40 1999.20,1409.20"/>
    </edge>
    <edge id=":2_12" function="internal">
        <lane id=":2_12_0" index="0" speed="3.65" length="3.23" shape="1999.20,1409.20 2000.00,1408.80 2000.80,1409.20 2001.60,1410.40"/>
    </edge>
    <edge id=":2_4" function="internal">
        <lane id=":2_4_0" index="0" speed="13.89" length="20.80" shape="2004.80,1389.60 2004.80,1410.40"/>
        <lane id=":2_4_1" index="1" speed="13.89" length="20.80" shape="2001.60,1389.60 2001.60,1410.40"/>
    </edge>
    <edge id=":2_6" function="internal">
        <lane id=":2_6_0" index="0" speed="9.26" length="5.01" shape="2001.60,1389.60 2000.89,1394.56"/>
    </edge>
    <edge id=":2_7" function="internal">
        <lane id=":2_7_0" index="0" speed="3.65" length="1.44" shape="2001.60,1389.60 2000.80,1390.80"/>
    </edge>
    <edge id=":2_13" function="internal">
        <lane id=":2_13_0" index="0" speed="9.26" length="14.34" shape="2000.89,1394.56 2000.85,1394.85 1998.60,1398.60 1994.85,1400.85 1989.60,1401.60"/>
    </edge>
    <edge id=":2_14" function="internal">
        <lane id=":2_14_0" index="0" speed="3.65" length="3.23" shape="2000.80,1390.80 2000.00,1391.20 1999.20,1390.80 1998.40,1389.60"/>
    </edge>
    <edge id=":2_8" function="internal">
        <lane id=":2_8_0" index="0" speed="6.51" length="9.03" shape="1989.60,1395.20 1992.05,1394.85 1993.80,1393.80 1994.85,1392.05 1995.20,1389.60"/>
        <lane id=":2_8_1" index="1" speed="8.00" length="14.19" shape="1989.60,1398.40 1993.45,1397.85 1996.20,1396.20 1997.85,1393.45 1998.40,1389.60"/>
    </edge>
    <edge id=":2_10" function="internal">
        <lane id=":2_10_0" index="0" speed="9.26" length="19.35" shape="1989.60,1398.40 1994.85,1399.15 1998.60,1401.40 2000.85,1405.15 2001.60,1410.40"/>
    </edge>
    <edge id=":2_11" function="internal">
        <lane id=":2_11_0" index="0" speed="3.65" length="2.34" shape="1989.60,1398.40 1990.80,1399.20 1991.20,1400.00"/>
    </edge>
    <edge id=":2_15" function="internal">
        <lane id=":2_15_0" index="0" speed="3.65" length="2.34" shape="1991.20,1400.00 1990.80,1400.80 1989.60,1401.60"/>
    </edge>
    <edge id=":20_0" function="internal">
        <lane id=":20_0_0" index="0" speed="6.51" length="9.03" shape="1995.20,1210.40 1994.85,1207.95 1993.80,1206.20 1992.05,1205.15 1989.60,1204.80"/>
    </edge>
    <edge id=":20_1" function="internal">
        <lane id=":20_1_0" index="0" speed="13.89" length="20.80" shape="1995.20,1210.40 1995.20,1189.60"/>
        <lane id=":20_1_1" index="1" speed="13.89" length="20.80" shape="1998.40,1210.40 1998.40,1189.60"/>
    </edge>
    <edge id=":20_3" function="internal">
        <lane id=":20_3_0" index="0" speed="3.65" length="1.44" shape="1998.40,1210.40 1999.20,1209.20"/>
    </edge>
    <edge id=":20_12" function="internal">
        <lane id=":20_12_0" index="0" speed="3.65" length="3.23" shape="1999.20,1209.20 2000.00,1208.80 2000.80,1209.20 2001.60,1210.40"/>
    </edge>
    <edge id=":20_4" function="internal">
        <lane id=":20_4_0" index="0" speed="13.89" length="20.80" shape="2004.80,1189.60 2004.80,1210.40"/>
        <lane id=":20_4_1" index="1" speed="13.89" length="20.80" shape="2001.60,1189.60 2001.60,1210.40"/>
    </edge>
    <edge id=":20_6" function="internal">
        <lane id=":20_6_0" index="0" speed="9.26" length="5.01" shape="2001.60,1189.60 2000.89,1194.56"/>
    </edge>
    <edge id=":20_7" function="internal">
        <lane id=":20_7_0" index="0" speed="3.65" length="1.44" shape="2001.60,1189.60 2000.80,1190.80"/>
    </edge>
    <edge id=":20_13" function="internal">
        <lane id=":20_13_0" index="0" speed="9.26" length="14.34" shape="2000.89,1194.56 2000.85,1194.85 1998.60,1198.60 1994.85,1200.85 1989.60,1201.60"/>
    </edge>
    <edge id=":20_14" function="internal">
        <lane id=":20_14_0" index="0" speed="3.65" length="3.23" shape="2000.80,1190.80 2000.00,1191.20 1999.20,1190.80 1998.40,1189.60"/>
    </edge>
    <edge id=":20_8" function="internal">
        <lane id=":20_8_0" index="0" speed="6.51" length="9.03" shape="1989.60,1195.20 1992.05,1194.85 1993.80,1193.80 1994.85,1192.05 1995.20,1189.60"/>
        <lane id=":20_8_1" index="1" speed="8.00" length="14.19" shape="1989.60,1198.40 1993.45,1197.85 1996.20,1196.20 1997.85,1193.45 1998.40,1189.60"/>
    </edge>
    <edge id=":20_10" function="internal">
        <lane id=":20_10_0" index="0" speed="9.26" length="19.35" shape="1989.60,1198.40 1994.85,1199.15 1998.60,1201.40 2000.85,1205.15 2001.60,1210.40"/>
    </edge>
    <edge id=":20_11" function="internal">
        <lane id=":20_11_0" index="0" speed="3.65" length="2.34" shape="1989.60,1198.40 1990.80,1199.20 1991.20,1200.00"/>
    </edge>
    <edge id=":20_15" function="internal">
        <lane id=":20_15_0" index="0" speed="3.65" length="2.34" shape="1991.20,1200.00 1990.80,1200.80 1989.60,1201.60"/>
    </edge>
    <edge id=":274_0" function="internal">
        <lane id=":274_0_0" index="0" speed="6.51" length="9.03" shape="1795.20,1010.40 1794.85,1007.95 1793.80,1006.20 1792.05,1005.15 1789.60,1004.80"/>
    </edge>
    <edge id=":274_1" function="internal">
        <lane id=":274_1_0" index="0" speed="13.89" length="20.80" shape="1795.20,1010.40 1795.20,989.60"/>
        <lane id=":274_1_1" index="1" speed="13.89" length="20.80" shape="1798.40,1010.40 1798.40,989.60"/>
    </edge>
    <edge id=":274_3" function="internal">
        <lane id=":274_3_0" index="0" speed="3.65" length="1.44" shape="1798.40,1010.40 1799.20,1009.20"/>
    </edge>
    <edge id=":274_12" function="internal">
        <lane id=":274_12_0" index="0" speed="3.65" length="3.23" shape="1799.20,1009.20 1800.00,1008.80 1800.80,1009.20 1801.60,1010.40"/>
    </edge>
    <edge id=":274_4" function="internal">
        <lane id=":274_4_0" index="0" speed="13.89" length="20.80" shape="1804.80,989.60 1804.80,1010.40"/>
        <lane id=":274_4_1" index="1" speed="13.89" length="20.80" shape="1801.60,989.60 1801.60,1010.40"/>
    </edge>
    <edge id=":274_6" function="internal">
        <lane id=":274_6_0" index="0" speed="9.26" length="5.01" shape="1801.60,989.60 1800.89,994.56"/>
    </edge>
    <edge id=":274_7" function="internal">
        <lane id=":274_7_0" index="0" speed="3.65" length="1.44" shape="1801.60,989.60 1800.80,990.80"/>
    </edge>
    <edge id=":274_13" function="internal">
        <lane id=":274_13_0" index="0" speed="9.26" length="14.34" shape="1800.89,994.56 1800.85,994.85 1798.60,998.60 1794.85,1000.85 1789.60,1001.60"/>
    </edge>
    <edge id=":274_14" function="internal">
        <lane id=":274_14_0" index="0" speed="3.65" length="3.23" shape="1800.80,990.80 1800.00,991.20 1799.20,990.80 1798.40,989.60"/>
    </edge>
    <edge id=":274_8" function="internal">
        <lane id=":274_8_0" index="0" speed="6.51" length="9.03" shape="1789.60,995.20 1792.05,994.85 1793.80,993.80 1794.85,992.05 1795.20,989.60"/>
        <lane id=":274_8_1" index="1" speed="8.00" length="14.19" shape="1789.60,998.40 1793.45,997.85 1796.20,996.20 1797.85,993.45 1798.40,989.60"/>
    </edge>
    <edge id=":274_10" function="internal">
        <lane id=":274_10_0" index="0" speed="9.26" length="19.35" shape="1789.60,998.40 1794.85,999.15 1798.60,1001.40 1800.85,1005.15 1801.60,1010.40"/>
    </edge>
    <edge id=":274_11" function="internal">
        <lane id=":274_11_0" index="0" speed="3.65" length="2.34" shape="1789.60,998.40 1790.80,999.20 1791.20,1000.00"/>
    </edge>
    <edge id=":274_15" function="internal">
        <lane id=":274_15_0" index="0" speed="3.65" length="2.34" shape="1791.20,1000.00 1790.80,1000.80 1789.60,1001.60"/>
    </edge>
    <edge id=":288_0" function="internal">
        <lane id=":288_0_0" index="0" speed="13.89" length="20.80" shape="1595.20,1410.40 1595.20,1389.60"/>
        <lane id=":288_0_1" index="1" speed="13.89" length="20.80" shape="1598.40,1410.40 1598.40,1389.60"/>
    </edge>
    <edge id=":288_2" function="internal">
        <lane id=":288_2_0" index="0" speed="9.26" length="5.01" shape="1598.40,1410.40 1599.11,1405.44"/>
    </edge>
    <edge id=":288_3" function="internal">
        <lane id=":288_3_0" index="0" speed="3.65" length="1.44" shape="1598.40,1410.40 1599.20,1409.20"/>
    </edge>
    <edge id=":288_12" function="internal">
        <lane id=":288_12_0" index="0" speed="9.26" length="14.34" shape="1599.11,1405.44 1599.15,1405.15 1601.40,1401.40 1605.15,1399.15 1610.40,1398.40"/>
    </edge>
    <edge id=":288_13" function="internal">
        <lane id=":288_13_0" index="0" speed="3.65" length="3.23" shape="1599.20,1409.20 1600.00,1408.80 1600.80,1409.20 1601.60,1410.40"/>
    </edge>
    <edge id=":288_4" function="internal">
        <lane id=":288_4_0" index="0" speed="6.51" length="9.03" shape="1610.40,1404.80 1607.95,1405.15 1606.20,1406.20 1605.15,1407.95 1604.80,1410.40"/>
        <lane id=":288_4_1" index="1" speed="8.00" length="14.19" shape="1610.40,1401.60 1606.55,1402.15 1603.80,1403.80 1602.15,1406.55 1601.60,1410.40"/>
    </edge>
    <edge id=":288_6" function="internal">
        <lane id=":288_6_0" index="0" speed="9.26" length="19.35" shape="1610.40,1401.60 1605.15,1400.85 1601.40,1398.60 1599.15,1394.85 1598.40,1389.60"/>
    </edge>
    <edge id=":288_7" function="internal">
        <lane id=":288_7_0" index="0" speed="3.65" length="2.34" shape="1610.40,1401.60 1609.20,1400.80 1608.80,1400.00"/>
    </edge>
    <edge id=":288_14" function="internal">
        <lane id=":288_14_0" index="0" speed="3.65" length="2.34" shape="1608.80,1400.00 1609.20,1399.20 1610.40,1398.40"/>
    </edge>
    <edge id=":288_8" function="internal">
        <lane id=":288_8_0" index="0" speed="6.51" length="9.03" shape="1604.80,1389.60 1605.15,1392.05 1606.20,1393.80 1607.95,1394.85 1610.40,1395.20"/>
    </edge>
    <edge id=":288_9" function="internal">
        <lane id=":288_9_0" index="0" speed="13.89" length="20.80" shape="1604.80,1389.60 1604.80,1410.40"/>
        <lane id=":288_9_1" index="1" speed="13.89" length="20.80" shape="1601.60,1389.60 1601.60,1410.40"/>
    </edge>
    <edge id=":288_11" function="internal">
        <lane id=":288_11_0" index="0" speed="3.65" length="1.44" shape="1601.60,1389.60 1600.80,1390.80"/>
    </edge>
    <edge id=":288_15" function="internal">
        <lane id=":288_15_0" index="0" speed="3.65" length="3.23" shape="1600.80,1390.80 1600.00,1391.20 1599.20,1390.80 1598.40,1389.60"/>
    </edge>
    <edge id=":329_0" function="internal">
        <lane id=":329_0_0" index="0" speed="3.65" length="4.67" shape="1798.40,600.00 1799.20,598.80 1800.00,598.40 1800.80,598.80 1801.60,600.00"/>
    </edge>
    <edge id=":337_0" function="internal">
        <lane id=":337_0_0" index="0" speed="3.65" length="4.67" shape="1400.00,1001.60 1398.80,1000.80 1398.40,1000.00 1398.80,999.20 1400.00,998.40"/>
    </edge>
    <edge id=":42_0" function="internal">
        <lane id=":42_0_0" index="0" speed="13.89" length="20.80" shape="1795.20,1210.40 1795.20,1189.60"/>
        <lane id=":42_0_1" index="1" speed="13.89" length="20.80" shape="1798.40,1210.40 1798.40,1189.60"/>
    </edge>
    <edge id=":42_2" function="internal">
        <lane id=":42_2_0" index="0" speed="9.26" length="5.01" shape="1798.40,1210.40 1799.11,1205.44"/>
    </edge>
    <edge id=":42_3" function="internal">
        <lane id=":42_3_0" index="0" speed="3.65" length="1.44" shape="1798.40,1210.40 1799.20,1209.20"/>
    </edge>
    <edge id=":42_12" function="internal">
        <lane id=":42_12_0" index="0" speed="9.26" length="14.34" shape="1799.11,1205.44 1799.15,1205.15 1801.40,1201.40 1805.15,1199.15 1810.40,1198.40"/>
    </edge>
    <edge id=":42_13" function="internal">
        <lane id=":42_13_0" index="0" speed="3.65" length="3.23" shape="1799.20,1209.20 1800.00,1208.80 1800.80,1209.20 1801.60,1210.40"/>
    </edge>
    <edge id=":42_4" function="internal">
        <lane id=":42_4_0" index="0" speed="6.51" length="9.03" shape="1810.40,1204.80 1807.95,1205.15 1806.20,1206.20 1805.15,1207.95 1804.80,1210.40"/>
        <lane id=":42_4_1" index="1" speed="8.00" length="14.19" shape="1810.40,1201.60 1806.55,1202.15 1803.80,1203.80 1802.15,1206.55 1801.60,1210.40"/>
    </edge>
    <edge id=":42_6" function="internal">
        <lane id=":42_6_0" index="0" speed="9.26" length="19.35" shape="1810.40,1201.60 1805.15,1200.85 1801.40,1198.60 1799.15,1194.85 1798.40,1189.60"/>
    </edge>
    <edge id=":42_7" function="internal">
        <lane id=":42_7_0" index="0" speed="3.65" length="2.34" shape="1810.40,1201.60 1809.20,1200.80 1808.80,1200.00"/>
    </edge>
    <edge id=":42_14" function="internal">
        <lane id=":42_14_0" index="0" speed="3.65" length="2.34" shape="1808.80,1200.00 1809.20,1199.20 1810.40,1198.40"/>
    </edge>
    <edge id=":42_8" function="internal">
        <lane id=":42_8_0" index="0" speed="6.51" length="9.03" shape="1804.80,1189.60 1805.15,1192.05 1806.20,1193.80 1807.95,1194.85 1810.40,1195.20"/>
    </edge>
    <edge id=":42_9" function="internal">
        <lane id=":42_9_0" index="0" speed="13.89" length="20.80" shape="1804.80,1189.60 1804.80,1210.40"/>
        <lane id=":42_9_1" index="1" speed="13.89" length="20.80" shape="1801.60,1189.60 1801.60,1210.40"/>
    </edge>
    <edge id=":42_11" function="internal">
        <lane id=":42_11_0" index="0" speed="3.65" length="1.44" shape="1801.60,1189.60 1800.80,1190.80"/>
    </edge>
    <edge id=":42_15" function="internal">
        <lane id=":42_15_0" index="0" speed="3.65" length="3.23" shape="1800.80,1190.80 1800.00,1191.20 1799.20,1190.80 1798.40,1189.60"/>
    </edge>
    <edge id=":492_0" function="internal">
        <lane id=":492_0_0" index="0" speed="3.65" length="4.67" shape="1601.60,1600.00 1600.80,1601.20 1600.00,1601.60 1599.20,1601.20 1598.40,1600.00"/>
    </edge>
    <edge id=":496_0" function="internal">
        <lane id=":496_0_0" index="0" speed="3.65" length="4.67" shape="1598.40,1200.00 1599.20,1198.80 1600.00,1198.40 1600.80,1198.80 1601.60,1200.00"/>
    </edge>

    <edge id="-154" from="153" to="2" priority="-1">
        <lane id="-154_0" index="0" speed="13.89" length="179.20" shape="1810.40,1395.20 1989.60,1395.20"/>
        <lane id="-154_1" index="1" speed="13.89" length="179.20" shape="1810.40,1398.40 1989.60,1398.40"/>
    </edge>
    <edge id="-21" from="20" to="2" priority="-1">
        <lane id="-21_0" index="0" speed="13.89" length="179.20" shape="2004.80,1210.40 2004.80,1389.60"/>
        <lane id="-21_1" index="1" speed="13.89" length="179.20" shape="2001.60,1210.40 2001.60,1389.60"/>
    </edge>
    <edge id="-262" from="153" to="42" priority="-1">
        <lane id="-262_0" index="0" speed="13.89" length="179.20" shape="1795.20,1389.60 1795.20,1210.40"/>
        <lane id="-262_1" index="1" speed="13.89" length="179.20" shape="1798.40,1389.60 1798.40,1210.40"/>
    </edge>
    <edge id="-27" from="26" to="20" priority="-1">
        <lane id="-27_0" index="0" speed="13.89" length="389.60" shape="2004.80,800.00 2004.80,1189.60"/>
        <lane id="-27_1" index="1" speed="13.89" length="389.60" shape="2001.60,800.00 2001.60,1189.60"/>
    </edge>
    <edge id="-275" from="274" to="42" priority="-1">
        <lane id="-275_0" index="0" speed="13.89" length="179.20" shape="1804.80,1010.40 1804.80,1189.60"/>
        <lane id="-275_1" index="1" speed="13.89" length="179.20" shape="1801.60,1010.40 1801.60,1189.60"/>
    </edge>
    <edge id="-289" from="288" to="153" priority="-1">
        <lane id="-289_0" index="0" speed="13.89" length="179.20" shape="1610.40,1395.20 1789.60,1395.20"/>
        <lane id="-289_1" index="1" speed="13.89" length="179.20" shape="1610.40,1398.40 1789.60,1398.40"/>
    </edge>
    <edge id="-3" from="2" to="1" priority="-1">
        <lane id="-3_0" index="0" speed="13.89" length="389.60" shape="2004.80,1410.40 2004.80,1800.00"/>
        <lane id="-3_1" index="1" speed="13.89" length="389.60" shape="2001.60,1410.40 2001.60,1800.00"/>
    </edge>
    <edge id="-330" from="329" to="274" priority="-1">
        <lane id="-330_0" index="0" speed="13.89" length="389.60" shape="1804.80,600.00 1804.80,989.60"/>
        <lane id="-330_1" index="1" speed="13.89" length="389.60" shape="1801.60,600.00 1801.60,989.60"/>
    </edge>
    <edge id="-338" from="337" to="274" priority="-1">
        <lane id="-338_0" index="0" speed="13.89" length="389.60" shape="1400.00,995.20 1789.60,995.20"/>
        <lane id="-338_1" index="1" speed="13.89" length="389.60" shape="1400.00,998.40 1789.60,998.40"/>
    </edge>
    <edge id="-43" from="42" to="20" priority="-1">
        <lane id="-43_0" index="0" speed="13.89" length="179.20" shape="1810.40,1195.20 1989.60,1195.20"/>
        <lane id="-43_1" index="1" speed="13.89" length="179.20" shape="1810.40,1198.40 1989.60,1198.40"/>
    </edge>
    <edge id="-493" from="492" to="288" priority="-1">
        <lane id="-493_0" index="0" speed="13.89" length="189.60" shape="1595.20,1600.00 1595.20,1410.40"/>
        <lane id="-493_1" index="1" speed="13.89" length="189.60" shape="1598.40,1600.00 1598.40,1410.40"/>
    </edge>
    <edge id="-497" from="496" to="288" priority="-1">
        <lane id="-497_0" index="0" speed="13.89" length="189.60" shape="1604.80,1200.00 1604.80,1389.60"/>
        <lane id="-497_1" index="1" speed="13.89" length="189.60" shape="1601.60,1200.00 1601.60,1389.60"/>
    </edge>
    <edge id="154" from="2" to="153" priority="-1">
        <lane id="154_0" index="0" speed="13.89" length="179.20" shape="1989.60,1404.80 1810.40,1404.80"/>
        <lane id="154_1" index="1" speed="13.89" length="179.20" shape="1989.60,1401.60 1810.40,1401.60"/>
    </edge>
    <edge id="21" from="2" to="20" priority="-1">
        <lane id="21_0" index="0" speed="13.89" length="179.20" shape="1995.20,1389.60 1995.20,1210.40"/>
        <lane id="21_1" index="1" speed="13.89" length="179.20" shape="1998.40,1389.60 1998.40,1210.40"/>
    </edge>
    <edge id="262" from="42" to="153" priority="-1">
        <lane id="262_0" index="0" speed="13.89" length="179.20" shape="1804.80,1210.40 1804.80,1389.60"/>
        <lane id="262_1" index="1" speed="13.89" length="179.20" shape="1801.60,1210.40 1801.60,1389.60"/>
    </edge>
    <edge id="27" from="20" to="26" priority="-1">
        <lane id="27_0" index="0" speed="13.89" length="389.60" shape="1995.20,1189.60 1995.20,800.00"/>
        <lane id="27_1" index="1" speed="13.89" length="389.60" shape="1998.40,1189.60 1998.40,800.00"/>
    </edge>
    <edge id="275" from="42" to="274" priority="-1">
        <lane id="275_0" index="0" speed="13.89" length="179.20" shape="1795.20,1189.60 1795.20,1010.40"/>
        <lane id="275_1" index="1" speed="13.89" length="179.20" shape="1798.40,1189.60 1798.40,1010.40"/>
    </edge>
    <edge id="289" from="153" to="288" priority="-1">
        <lane id="289_0" index="0" speed="13.89" length="179.20" shape="1789.60,1404.80 1610.40,1404.80"/>
        <lane id="289_1" index="1" speed="13.89" length="179.20" shape="1789.60,1401.60 1610.40,1401.60"/>
    </edge>
    <edge id="3" from="1" to="2" priority="-1">
        <lane id="3_0" index="0" speed="13.89" length="389.60" shape="1995.20,1800.00 1995.20,1410.40"/>
        <lane id="3_1" index="1" speed="13.89" length="389.60" shape="1998.40,1800.00 1998.40,1410.40"/>
    </edge>
    <edge id="330" from="274" to="329" priority="-1">
        <lane id="330_0" index="0" speed="13.89" length="389.60" shape="1795.20,989.60 1795.20,600.00"/>
        <lane id="330_1" index="1" speed="13.89" length="389.60" shape="1798.40,989.60 1798.40,600.00"/>
    </edge>
    <edge id="338" from="274" to="337" priority="-1">
        <lane id="338_0" index="0" speed="13.89" length="389.60" shape="1789.60,1004.80 1400.00,1004.80"/>
        <lane id="338_1" index="1" speed="13.89" length="389.60" shape="1789.60,1001.60 1400.00,1001.60"/>
    </edge>
    <edge id="43" from="20" to="42" priority="-1">
        <lane id="43_0" index="0" speed="13.89" length="179.20" shape="1989.60,1204.80 1810.40,1204.80"/>
        <lane id="43_1" index="1" speed="13.89" length="179.20" shape="1989.60,1201.60 1810.40,1201.60"/>
    </edge>
    <edge id="493" from="288" to="492" priority="-1">
        <lane id="493_0" index="0" speed="13.89" length="189.60" shape="1604.80,1410.40 1604.80,1600.00"/>
        <lane id="493_1" index="1" speed="13.89" length="189.60" shape="1601.60,1410.40 1601.60,1600.00"/>
    </edge>
    <edge id="497" from="288" to="496" priority="-1">
        <lane id="497_0" index="0" speed="13.89" length="189.60" shape="1595.20,1389.60 1595.20,1200.00"/>
        <lane id="497_1" index="1" speed="13.89" length="189.60" shape="1598.40,1389.60 1598.40,1200.00"/>
    </edge>

    <tlLogic id="153" type="static" programID="0" offset="0">
        <phase duration="42" state="GGggrrrrGGGg"/>
        <phase duration="3"  state="yyyyrrrrGyyy"/>
        <phase duration="42" state="rrrrGGGgGrrr"/>
        <phase duration="3"  state="rrrryyyyGrrr"/>
    </tlLogic>
    <tlLogic id="2" type="static" programID="0" offset="0">
        <phase duration="42" state="GGGgGGggrrrr"/>
        <phase duration="3"  state="Gyyyyyyyrrrr"/>
        <phase duration="42" state="GrrrrrrrGGGg"/>
        <phase duration="3"  state="Grrrrrrryyyy"/>
    </tlLogic>
    <tlLogic id="20" type="static" programID="0" offset="0">
        <phase duration="42" state="GGGgGGggrrrr"/>
        <phase duration="3"  state="Gyyyyyyyrrrr"/>
        <phase duration="42" state="GrrrrrrrGGGg"/>
        <phase duration="3"  state="Grrrrrrryyyy"/>
    </tlLogic>
    <tlLogic id="274" type="static" programID="0" offset="0">
        <phase duration="42" state="GGGgGGggrrrr"/>
        <phase duration="3"  state="Gyyyyyyyrrrr"/>
        <phase duration="42" state="GrrrrrrrGGGg"/>
        <phase duration="3"  state="Grrrrrrryyyy"/>
    </tlLogic>
    <tlLogic id="288" type="static" programID="0" offset="0">
        <phase duration="42" state="GGggrrrrGGGg"/>
        <phase duration="3"  state="yyyyrrrrGyyy"/>
        <phase duration="42" state="rrrrGGGgGrrr"/>
        <phase duration="3"  state="rrrryyyyGrrr"/>
    </tlLogic>
    <tlLogic id="42" type="static" programID="0" offset="0">
        <phase duration="42" state="GGggrrrrGGGg"/>
        <phase duration="3"  state="yyyyrrrrGyyy"/>
        <phase duration="42" state="rrrrGGGgGrrr"/>
        <phase duration="3"  state="rrrryyyyGrrr"/>
    </tlLogic>

    <junction id="1" type="priority" x="2000.00" y="1800.00" incLanes="-3_0 -3_1" intLanes=":1_0_0" shape="2000.00,1800.00 2006.40,1800.00 2000.00,1800.00">
        <request index="0" response="0" foes="0" cont="0"/>
    </junction>
    <junction id="153" type="traffic_light" x="1800.00" y="1400.00" incLanes="154_0 154_1 262_0 262_1 -289_0 -289_1" intLanes=":153_0_0 :153_0_1 :153_12_0 :153_13_0 :153_4_0 :153_4_1 :153_6_0 :153_14_0 :153_8_0 :153_9_0 :153_9_1 :153_15_0" shape="1810.40,1406.40 1810.40,1393.60 1808.18,1393.16 1807.40,1392.60 1806.84,1391.82 1806.51,1390.82 1806.40,1389.60 1793.60,1389.60 1793.16,1391.82 1792.60,1392.60 1791.82,1393.16 1790.82,1393.49 1789.60,1393.60 1789.60,1406.40">
        <request index="0"  response="000000000000" foes="100001000000" cont="0"/>
        <request index="1"  response="000000000000" foes="100001000000" cont="0"/>
        <request index="2"  response="011000000000" foes="011011000000" cont="1"/>
        <request index="3"  response="011000110000" foes="011000110000" cont="1"/>
        <request index="4"  response="011000000000" foes="011000001000" cont="0"/>
        <request index="5"  response="011000000000" foes="011000001000" cont="0"/>
        <request index="6"  response="011000000111" foes="111000000111" cont="0"/>
        <request index="7"  response="000000000100" foes="000000000100" cont="1"/>
        <request index="8"  response="000000000000" foes="000000000000" cont="0"/>
        <request index="9"  response="000000000000" foes="000001111100" cont="0"/>
        <request index="10" response="000000000000" foes="000001111100" cont="0"/>
        <request index="11" response="000001000011" foes="000001000011" cont="1"/>
    </junction>
    <junction id="2" type="traffic_light" x="2000.00" y="1400.00" incLanes="3_0 3_1 -21_0 -21_1 -154_0 -154_1" intLanes=":2_0_0 :2_1_0 :2_1_1 :2_12_0 :2_4_0 :2_4_1 :2_13_0 :2_14_0 :2_8_0 :2_8_1 :2_10_0 :2_15_0" shape="1993.60,1410.40 2006.40,1410.40 2006.40,1389.60 1993.60,1389.60 1993.16,1391.82 1992.60,1392.60 1991.82,1393.16 1990.82,1393.49 1989.60,1393.60 1989.60,1406.40 1991.82,1406.84 1992.60,1407.40 1993.16,1408.18 1993.49,1409.18">
        <request index="0"  response="000000000000" foes="000000000000" cont="0"/>
        <request index="1"  response="000000000000" foes="011111000000" cont="0"/>
        <request index="2"  response="000000000000" foes="011111000000" cont="0"/>
        <request index="3"  response="010000110000" foes="010000110000" cont="1"/>
        <request index="4"  response="000000000000" foes="010000001000" cont="0"/>