<?xml version="1.0" encoding="UTF-8"?>

<!-- generated on 2025-03-04 15:26:11.320631 by randomTrips.py v1_19_0+1770-8bb5c24c187
<configuration>
    <net-file value="random_subnetwork_2.net.xml"/>
    <output-trip-file value="random_subnetwork_2_medium.trips.xml"/>
    <fringe-factor value="100"/>
    <remove-loops value="True"/>
    <validate value="True"/>
    <period value="2.0"/>
    <binomial value="4"/>
</configuration>
-->

<!-- generated on 2025-03-04 15:26:11 by Eclipse SUMO duarouter Version v1_19_0+1770-8bb5c24c187
<configuration xmlns:xsi="http://www.w3.org/2001/XMLSchema-instance" xsi:noNamespaceSchemaLocation="http://sumo.dlr.de/xsd/duarouterConfiguration.xsd">

    <input>
        <net-file value="random_subnetwork_2.net.xml"/>
        <route-files value="random_subnetwork_2_medium.trips.xml"/>
    </input>

    <output>
        <output-file value="random_subnetwork_2_medium.trips.xml.tmp"/>
        <alternatives-output value="NUL"/>
        <write-trips value="true"/>
    </output>

    <processing>
        <remove-loops value="true"/>
    </processing>

    <time>
        <begin value="0.0"/>
        <end value="3600.0"/>
    </time>

    <report>
        <no-warnings value="true"/>
        <ignore-errors value="true"/>
        <no-step-log value="true"/>
    </report>

</configuration>
-->

<routes xmlns:xsi="http://www.w3.org/2001/XMLSchema-instance" xsi:noNamespaceSchemaLocation="http://sumo.dlr.de/xsd/routes_file.xsd">
    <trip id="0" depart="0.00" from="-330" to="27"/>
    <trip id="1" depart="1.00" from="-338" to="-3"/>
    <trip id="2" depart="2.00" from="-330" to="338"/>
    <trip id="3" depart="3.00" from="-497" to="493"/>
    <trip id="4" depart="4.00" from="-27" to="497"/>
    <trip id="5" depart="7.00" from="-330" to="27"/>
    <trip id="6" depart="8.00" from="-330" to="-3"/>
    <trip id="7" depart="13.00" from="-330" to="27"/>
    <trip id="8" depart="18.00" from="-27" to="-3"/>
    <trip id="9" depart="19.00" from="-338" to="497"/>
    <trip id="10" depart="20.00" from="-497" to="493"/>
    <trip id="11" depart="21.00" from="-338" to="330"/>
    <trip id="12" depart="25.00" from="-330" to="-3"/>
    <trip id="13" depart="26.00" from="3" to="497"/>
    <trip id="14" depart="26.00" from="-338" to="-3"/>
    <trip id="15" depart="31.00" from="-330" to="27"/>
    <trip id="16" depart="32.00" from="-493" to="27"/>
    <trip id="17" depart="32.00" from="-330" to="338"/>
    <trip id="18" depart="35.00" from="-338" to="330"/>
    <trip id="19" depart="36.00" from="-338" to="27"/>
    <trip id="20" depart="39.00" from="43" to="493"/>
    <trip id="21" depart="41.00" from="-338" to="497"/>
    <trip id="22" depart="45.00" from="-493" to="330"/>
    <trip id="23" depart="46.00" from="-330" to="338"/>
    <trip id="24" depart="46.00" from="3" to="27"/>
    <trip id="25" depart="50.00" from="-338" to="497"/>
    <trip id="26" depart="51.00" from="-330" to="27"/>
    <trip id="27" depart="53.00" from="-497" to="27"/>
    <trip id="28" depart="54.00" from="-27" to="338"/>
    <trip id="29" depart="57.00" from="-338" to="27"/>
    <trip id="30" depart="57.00" from="-497" to="338"/>
    <trip id="31" depart="58.00" from="-27" to="497"/>
    <trip id="32" depart="62.00" from="-497" to="497"/>
    <trip id="33" depart="64.00" from="-497" to="27"/>
    <trip id="34" depart="66.00" from="3" to="497"/>
    <trip id="35" depart="68.00" from="-330" to="27"/>
    <trip id="36" depart="70.00" from="3" to="27"/>
    <trip id="37" depart="71.00" from="-338" to="493"/>
    <trip id="38" depart="73.00" from="3" to="338"/>
    <trip id="39" depart="74.00" from="-497" to="27"/>
    <trip id="40" depart="78.00" from="-330" to="330"/>
    <trip id="41" depart="81.00" from="-493" to="338"/>
    <trip id="42" depart="82.00" from="-330" to="330"/>
    <trip id="43" depart="83.00" from="-338" to="338"/>
    <trip id="44" depart="84.00" from="-497" to="493"/>
    <trip id="45" depart="85.00" from="-338" to="21"/>
    <trip id="46" depart="85.00" from="-330" to="497"/>
    <trip id="47" depart="91.00" from="-330" to="27"/>
    <trip id="48" depart="93.00" from="-338" to="338"/>
    <trip id="49" depart="95.00" from="-338" to="493"/>
    <trip id="50" depart="98.00" from="-338" to="493"/>
    <trip id="51" depart="99.00" from="-338" to="338"/>
    <trip id="52" depart="100.00" from="-493" to="-3"/>
    <trip id="53" depart="100.00" from="-338" to="27"/>
    <trip id="54" depart="102.00" from="-27" to="338"/>
    <trip id="55" depart="104.00" from="-27" to="-3"/>
    <trip id="56" depart="106.00" from="-497" to="497"/>
    <trip id="57" depart="107.00" from="-27" to="27"/>
    <trip id="58" depart="108.00" from="-497" to="338"/>
    <trip id="59" depart="108.00" from="-497" to="497"/>
    <trip id="60" depart="109.00" from="3" to="493"/>
    <trip id="61" depart="111.00" from="3" to="338"/>
    <trip id="62" depart="114.00" from="3" to="27"/>
    <trip id="63" depart="115.00" from="3" to="27"/>
    <trip id="64" depart="117.00" from="3" to="-3"/>
    <trip id="65" depart="119.00" from="-330" to="493"/>
    <trip id="66" depart="122.00" from="-330" to="-3"/>
    <trip id="67" depart="124.00" from="-330" to="27"/>
    <trip id="68" depart="125.00" from="-493" to="27"/>
    <trip id="69" depart="128.00" from="3" to="330"/>
    <trip id="70" depart="129.00" from="-493" to="-3"/>
    <trip id="71" depart="130.00" from="-497" to="338"/>
    <trip id="72" depart="134.00" from="21" to="330"/>
    <trip id="73" depart="139.00" from="-27" to="27"/>
    <trip id="74" depart="140.00" from="-497" to="493"/>
    <trip id="75" depart="141.00" from="-27" to="330"/>
    <trip id="76" depart="142.00" from="3" to="493"/>
    <trip id="77" depart="143.00" from="-497" to="330"/>
    <trip id="78" depart="145.00" from="-338" to="27"/>
    <trip id="79" depart="152.00" from="3" to="338"/>
    <trip id="80" depart="153.00" from="3" to="497"/>
    <trip id="81" depart="154.00" from="275" to="330"/>
    <trip id="82" depart="163.00" from="-497" to="493"/>
    <trip id="83" depart="165.00" from="-493" to="338"/>
    <trip id="84" depart="170.00" from="-27" to="338"/>
    <trip id="85" depart="172.00" from="-493" to="497"/>
    <trip id="86" depart="173.00" from="-497" to="27"/>
    <trip id="87" depart="174.00" from="3" to="338"/>
    <trip id="88" depart="176.00" from="-497" to="497"/>
    <trip id="89" depart="182.00" from="-493" to="330"/>
    <trip id="90" depart="187.00" from="-330" to="493"/>
    <trip id="91" depart="190.00" from="3" to="-3"/>
    <trip id="92" depart="193.00" from="-493" to="330"/>
    <trip id="93" depart="194.00" from="-330" to="-3"/>
    <trip id="94" depart="195.00" from="-497" to="497"/>
    <trip id="95" depart="197.00" from="3" to="-3"/>
    <trip id="96" depart="199.00" from="-338" to="330"/>
    <trip id="97" depart="200.00" from="-338" to="330"/>
    <trip id="98" depart="201.00" from="-497" to="338"/>
    <trip id="99" depart="202.00" from="3" to="330"/>
    <trip id="100" depart="203.00" from="-497" to="27"/>
    <trip id="101" depart="204.00" from="-497" to="27"/>
    <trip id="102" depart="205.00" from="3" to="-3"/>
    <trip id="103" depart="206.00" from="-27" to="493"/>
    <trip id="104" depart="207.00" from="-497" to="338"/>
    <trip id="105" depart="209.00" from="-493" to="497"/>
    <trip id="106" depart="209.00" from="-497" to="497"/>
    <trip id="107" depart="210.00" from="-338" to="330"/>
    <trip id="108" depart="211.00" from="-27" to="338"/>
    <trip id="109" depart="211.00" from="-330" to="338"/>
    <trip id="110" depart="213.00" from="-497" to="497"/>
    <trip id="111" depart="215.00" from="-338" to="338"/>
    <trip id="112" depart="216.00" from="-275" to="-3"/>
    <trip id="113" depart="217.00" from="-497" to="493"/>
    <trip id="114" depart="218.00" from="-338" to="338"/>
    <trip id="115" depart="221.00" from="3" to="330"/>
    <trip id="116" depart="223.00" from="3" to="493"/>
    <trip id="117" depart="224.00" from="3" to="338"/>
    <trip id="118" depart="225.00" from="-497" to="27"/>
    <trip id="119" depart="227.00" from="-27" to="-3"/>
    <trip id="120" depart="229.00" from="-338" to="27"/>
    <trip id="121" depart="230.00" from="-338" to="338"/>
    <trip id="122" depart="231.00" from="-330" to="27"/>
    <trip id="123" depart="232.00" from="-497" to="21"/>
    <trip id="124" depart="233.00" from="3" to="-3"/>
    <trip id="125" depart="233.00" from="3" to="497"/>
    <trip id="126" depart="235.00" from="-27" to="27"/>
    <trip id="127" depart="236.00" from="3" to="27"/>
    <trip id="128" depart="238.00" from="-493" to="497"/>
    <trip id="129" depart="244.00" from="-338" to="27"/>
    <trip id="130" depart="245.00" from="-493" to="27"/>
    <trip id="131" depart="245.00" from="262" to="-3"/>
    <trip id="132" depart="249.00" from="-27" to="497"/>
    <trip id="133" depart="253.00" from="-27" to="493"/>
    <trip id="134" depart="262.00" from="3" to="-3"/>
    <trip id="135" depart="263.00" from="-338" to="493"/>
    <trip id="136" depart="272.00" from="3" to="497"/>
    <trip id="137" depart="274.00" from="-27" to="330"/>
    <trip id="138" depart="275.00" from="3" to="497"/>
    <trip id="139" depart="278.00" from="-27" to="27"/>
    <trip id="140" depart="279.00" from="-330" to="27"/>
    <trip id="141" depart="279.00" from="-338" to="493"/>
    <trip id="142" depart="280.00" from="3" to="338"/>
    <trip id="143" depart="280.00" from="-493" to="27"/>
    <trip id="144" depart="282.00" from="3" to="-3"/>
    <trip id="145" depart="284.00" from="-497" to="330"/>
    <trip id="146" depart="286.00" from="-493" to="493"/>
    <trip id="147" depart="288.00" from="-497" to="330"/>
    <trip id="148" depart="288.00" from="-330" to="-3"/>
    <trip id="149" depart="291.00" from="-338" to="497"/>
    <trip id="150" depart="294.00" from="-493" to="493"/>
    <trip id="151" depart="295.00" from="-493" to="27"/>
    <trip id="152" depart="296.00" from="3" to="330"/>
    <trip id="153" depart="297.00" from="-493" to="330"/>
    <trip id="154" depart="299.00" from="-27" to="493"/>
    <trip id="155" depart="302.00" from="-497" to="330"/>
    <trip id="156" depart="305.00" from="3" to="330"/>
    <trip id="157" depart="306.00" from="-497" to="497"/>
    <trip id="158" depart="306.00" from="-493" to="497"/>
    <trip id="159" depart="308.00" from="-330" to="-3"/>
    <trip id="160" depart="309.00" from="-493" to="330"/>
    <trip id="161" depart="310.00" from="-330" to="497"/>
    <trip id="162" depart="311.00" from="3" to="338"/>
    <trip id="163" depart="314.00" from="-27" to="-3"/>
    <trip id="164" depart="320.00" from="-27" to="338"/>
    <trip id="165" depart="323.00" from="-27" to="330"/>
    <trip id="166" depart="327.00" from="-330" to="330"/>
    <trip id="167" depart="330.00" from="3" to="330"/>
    <trip id="168" depart="331.00" from="-338" to="497"/>
    <trip id="169" depart="335.00" from="-493" to="493"/>
    <trip id="170" depart="336.00" from="3" to="330"/>
    <trip id="171" depart="338.00" from="-27" to="27"/>
    <trip id="172" depart="344.00" from="-338" to="497"/>
    <trip id="173" depart="347.00" from="3" to="-3"/>
    <trip id="174" depart="347.00" from="-330" to="-3"/>
    <trip id="175" depart="349.00" from="-27" to="27"/>
    <trip id="176" depart="356.00" from="-497" to="330"/>
    <trip id="177" depart="362.00" from="-338" to="493"/>
    <trip id="178" depart="362.00" from="-497" to="275"/>
    <trip id="179" depart="365.00" from="-493" to="338"/>
    <trip id="180" depart="369.00" from="-493" to="-3"/>
    <trip id="181" depart="371.00" from="-27" to="330"/>
    <trip id="182" depart="374.00" from="-497" to="27"/>
    <trip id="183" depart="377.00" from="-493" to="493"/>
    <trip id="184" depart="377.00" from="-27" to="27"/>
    <trip id="185" depart="378.00" from="3" to="27"/>
    <trip id="186" depart="382.00" from="-338" to="493"/>
    <trip id="187" depart="383.00" from="-493" to="-3"/>
    <trip id="188" depart="384.00" from="-330" to="338"/>
    <trip id="189" depart="385.00" from="-493" to="493"/>
    <trip id="190" depart="386.00" from="-338" to="493"/>
    <trip id="191" depart="387.00" from="-338" to="-3"/>
    <trip id="192" depart="388.00" from="3" to="-3"/>
    <trip id="193" depart="393.00" from="-27" to="27"/>
    <trip id="194" depart="396.00" from="-497" to="330"/>
    <trip id="195" depart="397.00" from="-330" to="-3"/>
    <trip id="196" depart="397.00" from="-493" to="493"/>
    <trip id="197" depart="397.00" from="-497" to="330"/>
    <trip id="198" depart="398.00" from="-493" to="27"/>
    <trip id="199" depart="401.00" from="3" to="497"/>
    <trip id="200" depart="408.00" from="-497" to="27"/>
    <trip id="201" depart="412.00" from="3" to="497"/>
    <trip id="202" depart="412.00" from="43" to="330"/>
    <trip id="203" depart="415.00" from="3" to="330"/>
    <trip id="204" depart="423.00" from="-27" to="497"/>
    <trip id="205" depart="425.00" from="-493" to="330"/>
    <trip id="206" depart="427.00" from="-493" to="-3"/>
    <trip id="207" depart="428.00" from="-497" to="493"/>
    <trip id="208" depart="428.00" from="-27" to="-3"/>
    <trip id="209" depart="432.00" from="-338" to="338"/>
    <trip id="210" depart="433.00" from="-27" to="-3"/>
    <trip id="211" depart="434.00" from="-493" to="-3"/>
    <trip id="212" depart="435.00" from="-27" to="497"/>
    <trip id="213" depart="436.00" from="3" to="27"/>
    <trip id="214" depart="438.00" from="-27" to="27"/>
    <trip id="215" depart="440.00" from="-338" to="497"/>
    <trip id="216" depart="442.00" from="-330" to="497"/>
    <trip id="217" depart="444.00" from="-493" to="493"/>
    <trip id="218" depart="444.00" from="-27" to="493"/>
    <trip id="219" depart="445.00" from="-27" to="27"/>
    <trip id="220" depart="447.00" from="-338" to="-3"/>
    <trip id="221" depart="449.00" from="3" to="497"/>
    <trip id="222" depart="451.00" from="-338" to="330"/>
    <trip id="223" depart="451.00" from="-330" to="27"/>
    <trip id="224" depart="452.00" from="-330" to="497"/>
    <trip id="225" depart="458.00" from="-493" to="338"/>
    <trip id="226" depart="463.00" from="3" to="330"/>
    <trip id="227" depart="466.00" from="-497" to="338"/>
    <trip id="228" depart="466.00" from="3" to="493"/>
    <trip id="229" depart="468.00" from="-330" to="338"/>
    <trip id="230" depart="470.00" from="-27" to="330"/>
    <trip id="231" depart="471.00" from="3" to="-3"/>
    <trip id="232" depart="473.00" from="3" to="338"/>
    <trip id="233" depart="477.00" from="-493" to="27"/>
    <trip id="234" depart="479.00" from="-27" to="497"/>
    <trip id="235" depart="483.00" from="-27" to="-3"/>
    <trip id="236" depart="488.00" from="-338" to="-3"/>
    <trip id="237" depart="490.00" from="-27" to="493"/>
    <trip id="238" depart="492.00" from="-27" to="493"/>
    <trip id="239" depart="493.00" from="-497" to="338"/>
    <trip id="240" depart="494.00" from="262" to="493"/>
    <trip id="241" depart="499.00" from="-338" to="27"/>
    <trip id="242" depart="501.00" from="3" to="493"/>
    <trip id="243" depart="505.00" from="-493" to="27"/>
    <trip id="244" depart="507.00" from="-497" to="493"/>
    <trip id="245" depart="508.00" from="-493" to="27"/>
    <trip id="246" depart="511.00" from="-27" to="493"/>
    <trip id="247" depart="511.00" from="3" to="330"/>
    <trip id="248" depart="511.00" from="3" to="27"/>
    <trip id="249" depart="516.00" from="-338" to="-3"/>
    <trip id="250" depart="517.00" from="-497" to="493"/>
    <trip id="251" depart="518.00" from="-338" to="493"/>
    <trip id="252" depart="518.00" from="-330" to="497"/>
    <trip id="253" depart="520.00" from="-493" to="330"/>
    <trip id="254" depart="522.00" from="-27" to="493"/>
    <trip id="255" depart="523.00" from="-493" to="338"/>
    <trip id="256" depart="526.00" from="3" to="497"/>
    <trip id="257" depart="527.00" from="43" to="338"/>
    <trip id="258" depart="530.00" from="-27" to="27"/>
    <trip id="259" depart="530.00" from="-27" to="493"/>
    <trip id="260" depart="532.00" from="-493" to="338"/>
    <trip id="261" depart="534.00" from="-497" to="493"/>
    <trip id="262" depart="535.00" from="-27" to="330"/>
    <trip id="263" depart="536.00" from="-497" to="493"/>
    <trip id="264" depart="539.00" from="-497" to="27"/>
    <trip id="265" depart="540.00" from="-497" to="338"/>
    <trip id="266" depart="540.00" from="-338" to="330"/>
    <trip id="267" depart="541.00" from="-493" to="493"/>
    <trip id="268" depart="542.00" from="3" to="27"/>
    <trip id="269" depart="545.00" from="-338" to="330"/>
    <trip id="270" depart="547.00" from="-338" to="27"/>
    <trip id="271" depart="548.00" from="-330" to="338"/>
    <trip id="272" depart="551.00" from="-338" to="27"/>
    <trip id="273" depart="552.00" from="-493" to="497"/>
    <trip id="274" depart="552.00" from="-493" to="27"/>
    <trip id="275" depart="553.00" from="3" to="493"/>
    <trip id="276" depart="553.00" from="3" to="497"/>
    <trip id="277" depart="554.00" from="-27" to="-3"/>
    <trip id="278" depart="555.00" from="-493" to="330"/>
    <trip id="279" depart="557.00" from="-330" to="493"/>
    <trip id="280" depart="560.00" from="-27" to="493"/>
    <trip id="281" depart="561.00" from="3" to="27"/>
    <trip id="282" depart="561.00" from="-330" to="330"/>
    <trip id="283" depart="562.00" from="-338" to="330"/>
    <trip id="284" depart="564.00" from="262" to="497"/>
    <trip id="285" depart="566.00" from="-27" to="497"/>
    <trip id="286" depart="568.00" from="-338" to="-3"/>
    <trip id="287" depart="569.00" from="-497" to="-43"/>
    <trip id="288" depart="570.00" from="-493" to="27"/>
    <trip id="289" depart="571.00" from="-330" to="-3"/>
    <trip id="290" depart="576.00" from="3" to="338"/>
    <trip id="291" depart="577.00" from="-493" to="27"/>
    <trip id="292" depart="578.00" from="3" to="27"/>
    <trip id="293" depart="580.00" from="-497" to="497"/>
    <trip id="294" depart="583.00" from="-330" to="27"/>
    <trip id="295" depart="583.00" from="3" to="27"/>
    <trip id="296" depart="585.00" from="-493" to="497"/>
    <trip id="297" depart="587.00" from="-330" to="-3"/>
    <trip id="298" depart="592.00" from="-493" to="497"/>
    <trip id="299" depart="595.00" from="-497" to="338"/>
    <trip id="300" depart="596.00" from="-330" to="-3"/>
    <trip id="301" depart="597.00" from="-338" to="493"/>
    <trip id="302" depart="598.00" from="-338" to="497"/>
    <trip id="303" depart="599.00" from="3" to="27"/>
    <trip id="304" depart="600.00" from="-289" to="330"/>
    <trip id="305" depart="601.00" from="-493" to="338"/>
    <trip id="306" depart="601.00" from="3" to="-3"/>
    <trip id="307" depart="602.00" from="-330" to="27"/>
    <trip id="308" depart="604.00" from="-493" to="497"/>
    <trip id="309" depart="606.00" from="-289" to="27"/>
    <trip id="310" depart="606.00" from="3" to="27"/>
    <trip id="311" depart="607.00" from="-493" to="27"/>
    <trip id="312" depart="609.00" from="-497" to="338"/>
    <trip id="313" depart="609.00" from="-338" to="338"/>
    <trip id="314" depart="612.00" from="3" to="493"/>
    <trip id="315" depart="614.00" from="-497" to="-43"/>
    <trip id="316" depart="617.00" from="-338" to="330"/>
    <trip id="317" depart="621.00" from="-330" to="338"/>
    <trip id="318" depart="623.00" from="-330" to="-3"/>
    <trip id="319" depart="624.00" from="3" to="27"/>
    <trip id="320" depart="625.00" from="-497" to="27"/>
    <trip id="321" depart="626.00" from="3" to="-3"/>
    <trip id="322" depart="631.00" from="-330" to="493"/>
    <trip id="323" depart="634.00" from="-27" to="330"/>
    <trip id="324" depart="639.00" from="-497" to="493"/>
    <trip id="325" depart="639.00" from="3" to="338"/>
    <trip id="326" depart="639.00" from="-330" to="493"/>
    <trip id="327" depart="642.00" from="-493" to="338"/>
    <trip id="328" depart="644.00" from="-27" to="497"/>
    <trip id="329" depart="649.00" from="-497" to="338"/>
    <trip id="330" depart="652.00" from="-27" to="27"/>
    <trip id="331" depart="654.00" from="-338" to="493"/>
    <trip id="332" depart="657.00" from="3" to="330"/>
    <trip id="333" depart="658.00" from="3" to="-3"/>
    <trip id="334" depart="661.00" from="-330" to="493"/>
    <trip id="335" depart="662.00" from="-493" to="338"/>
    <trip id="336" depart="663.00" from="-330" to="330"/>
    <trip id="337" depart="663.00" from="-330" to="493"/>
    <trip id="338" depart="672.00" from="3" to="27"/>
    <trip id="339" depart="672.00" from="3" to="338"/>
    <trip id="340" depart="673.00" from="-497" to="330"/>
    <trip id="341" depart="676.00" from="-497" to="-3"/>
    <trip id="342" depart="677.00" from="-27" to="27"/>
    <trip id="343" depart="678.00" from="-338" to="27"/>
    <trip id="344" depart="679.00" from="-497" to="497"/>
    <trip id="345" depart="680.00" from="-493" to="493"/>
    <trip id="346" depart="680.00" from="-330" to="27"/>
    <trip id="347" depart="681.00" from="-330" to="-3"/>
    <trip id="348" depart="683.00" from="-497" to="-3"/>
    <trip id="349" depart="685.00" from="-497" to="27"/>
    <trip id="350" depart="687.00" from="-497" to="-3"/>
    <trip id="351" depart="689.00" from="-497" to="497"/>
    <trip id="352" depart="690.00" from="-338" to="-3"/>
    <trip id="353" depart="694.00" from="-493" to="27"/>
    <trip id="354" depart="695.00" from="-493" to="-3"/>
    <trip id="355" depart="696.00" from="-338" to="27"/>
    <trip id="356" depart="697.00" from="-330" to="338"/>
    <trip id="357" depart="699.00" from="-338" to="338"/>
    <trip id="358" depart="699.00" from="-338" to="338"/>
    <trip id="359" depart="699.00" from="-27" to="338"/>
    <trip id="360" depart="701.00" from="-330" to="330"/>
    <trip id="361" depart="703.00" from="-497" to="27"/>
    <trip id="362" depart="705.00" from="-27" to="-3"/>
    <trip id="363" depart="705.00" from="-493" to="27"/>
    <trip id="364" depart="707.00" from="-338" to="497"/>
    <trip id="365" depart="709.00" from="3" to="497"/>
    <trip id="366" depart="720.00" from="-338" to="330"/>
    <trip id="367" depart="722.00" from="-27" to="338"/>
    <trip id="368" depart="725.00" from="-497" to="-3"/>
    <trip id="369" depart="729.00" from="-330" to="338"/>
    <trip id="370" depart="736.00" from="3" to="338"/>
    <trip id="371" depart="738.00" from="-493" to="330"/>
    <trip id="372" depart="739.00" from="-330" to="27"/>
    <trip id="373" depart="741.00" from="-497" to="330"/>
    <trip id="374" depart="745.00" from="3" to="27"/>
    <trip id="375" depart="747.00" from="-27" to="338"/>
    <trip id="376" depart="748.00" from="-493" to="493"/>
    <trip id="377" depart="750.00" from="-27" to="493"/>
    <trip id="378" depart="752.00" from="-497" to="338"/>
    <trip id="379" depart="754.00" from="3" to="-3"/>
    <trip id="380" depart="754.00" from="-497" to="330"/>
    <trip id="381" depart="759.00" from="-27" to="338"/>
    <trip id="382" depart="765.00" from="-27" to="493"/>
    <trip id="383" depart="766.00" from="-493" to="497"/>
    <trip id="384" depart="769.00" from="-330" to="27"/>
    <trip id="385" depart="773.00" from="-27" to="-3"/>
    <trip id="386" depart="774.00" from="-493" to="330"/>
    <trip id="387" depart="782.00" from="-338" to="-3"/>
    <trip id="388" depart="784.00" from="3" to="27"/>
    <trip id="389" depart="790.00" from="-493" to="27"/>
    <trip id="390" depart="791.00" from="-330" to="493"/>
    <trip id="391" depart="792.00" from="-27" to="338"/>
    <trip id="392" depart="793.00" from="-493" to="-3"/>
    <trip id="393" depart="795.00" from="-497" to="338"/>
    <trip id="394" depart="795.00" from="-338" to="497"/>
    <trip id="395" depart="799.00" from="-330" to="497"/>
    <trip id="396" depart="800.00" from="-338" to="338"/>
    <trip id="397" depart="800.00" from="-497" to="330"/>
    <trip id="398" depart="801.00" from="-338" to="-3"/>
    <trip id="399" depart="803.00" from="-493" to="27"/>
    <trip id="400" depart="805.00" from="-27" to="330"/>
    <trip id="401" depart="807.00" from="-27" to="338"/>
    <trip id="402" depart="816.00" from="-27" to="-3"/>
    <trip id="403" depart="817.00" from="-330" to="-3"/>
    <trip id="404" depart="817.00" from="-338" to="497"/>
    <trip id="405" depart="821.00" from="-493" to="338"/>
    <trip id="406" depart="821.00" from="-330" to="-154"/>
    <trip id="407" depart="824.00" from="-27" to="27"/>
    <trip id="408" depart="827.00" from="-27" to="27"/>
    <trip id="409" depart="831.00" from="-27" to="-3"/>
    <trip id="410" depart="833.00" from="-275" to="27"/>
    <trip id="411" depart="833.00" from="-497" to="493"/>
    <trip id="412" depart="833.00" from="3" to="330"/>
    <trip id="413" depart="837.00" from="3" to="493"/>
    <trip id="414" depart="838.00" from="-338" to="338"/>
    <trip id="415" depart="841.00" from="-497" to="330"/>
    <trip id="416" depart="844.00" from="-330" to="338"/>
    <trip id="417" depart="848.00" from="-330" to="27"/>
    <trip id="418" depart="853.00" from="-497" to="330"/>
    <trip id="419" depart="855.00" from="-27" to="497"/>
    <trip id="420" depart="861.00" from="-27" to="27"/>
    <trip id="421" depart="864.00" from="-497" to="338"/>
    <trip id="422" depart="865.00" from="-27" to="-3"/>
    <trip id="423" depart="865.00" from="3" to="338"/>
    <trip id="424" depart="865.00" from="-338" to="493"/>
    <trip id="425" depart="865.00" from="-330" to="-3"/>
    <trip id="426" depart="868.00" from="-497" to="497"/>
    <trip id="427" depart="874.00" from="-497" to="497"/>
    <trip id="428" depart="874.00" from="3" to="497"/>
    <trip id="429" depart="875.00" from="-338" to="27"/>
    <trip id="430" depart="875.00" from="-338" to="330"/>
    <trip id="431" depart="882.00" from="-27" to="338"/>
    <trip id="432" depart="882.00" from="-330" to="493"/>
    <trip id="433" depart="886.00" from="-497" to="-3"/>
    <trip id="434" depart="887.00" from="-497" to="27"/>
    <trip id="435" depart="888.00" from="-338" to="493"/>
    <trip id="436" depart="890.00" from="3" to="338"/>
    <trip id="437" depart="892.00" from="-493" to="27"/>
    <trip id="438" depart="893.00" from="-497" to="-3"/>
    <trip id="439" depart="893.00" from="-497" to="330"/>
    <trip id="440" depart="894.00" from="-27" to="-3"/>
    <trip id="441" depart="895.00" from="-493" to="493"/>
    <trip id="442" depart="902.00" from="-27" to="27"/>
    <trip id="443" depart="902.00" from="-493" to="330"/>
    <trip id="444" depart="903.00" from="3" to="493"/>
    <trip id="445" depart="906.00" from="-493" to="-3"/>
    <trip id="446" depart="907.00" from="-493" to="493"/>
    <trip id="447" depart="909.00" from="3" to="27"/>
    <trip id="448" depart="910.00" from="-497" to="-3"/>
    <trip id="449" depart="912.00" from="-27" to="27"/>
    <trip id="450" depart="913.00" from="-497" to="338"/>
    <trip id="451" depart="915.00" from="-493" to="330"/>
    <trip id="452" depart="924.00" from="-497" to="493"/>
    <trip id="453" depart="925.00" from="-338" to="-3"/>
    <trip id="454" depart="927.00" from="-338" to="497"/>
    <trip id="455" depart="930.00" from="-27" to="493"/>
    <trip id="456" depart="932.00" from="-497" to="330"/>
    <trip id="457" depart="933.00" from="-493" to="-3"/>
    <trip id="458" depart="933.00" from="-497" to="330"/>
    <trip id="459" depart="935.00" from="-493" to="-3"/>
    <trip id="460" depart="936.00" from="-493" to="493"/>
    <trip id="461" depart="938.00" from="-497" to="27"/>
    <trip id="462" depart="939.00" from="-497" to="330"/>
    <trip id="463" depart="940.00" from="-330" to="497"/>
    <trip id="464" depart="941.00" from="-497" to="27"/>
    <trip id="465" depart="942.00" from="-27" to="497"/>
    <trip id="466" depart="943.00" from="-497" to="-3"/>
    <trip id="467" depart="944.00" from="-330" to="338"/>
    <trip id="468" depart="946.00" from="-493" to="338"/>
    <trip id="469" depart="946.00" from="-289" to="27"/>
    <trip id="470" depart="947.00" from="-493" to="-3"/>
    <trip id="471" depart="948.00" from="3" to="338"/>
    <trip id="472" depart="949.00" from="-330" to="497"/>
    <trip id="473" depart="951.00" from="-330" to="338"/>
    <trip id="474" depart="954.00" from="-493" to="27"/>
    <trip id="475" depart="955.00" from="-338" to="497"/>
    <trip id="476" depart="962.00" from="-330" to="497"/>
    <trip id="477" depart="965.00" from="-330" to="493"/>
    <trip id="478" depart="970.00" from="-497" to="-3"/>
    <trip id="479" depart="971.00" from="3" to="497"/>
    <trip id="480" depart="973.00" from="-497" to="330"/>
    <trip id="481" depart="976.00" from="3" to="338"/>
    <trip id="482" depart="977.00" from="-330" to="330"/>
    <trip id="483" depart="979.00" from="-493" to="-3"/>
    <trip id="484" depart="980.00" from="-497" to="497"/>
    <trip id="485" depart="983.00" from="-27" to="330"/>
    <trip id="486" depart="989.00" from="-27" to="27"/>
    <trip id="487" depart="990.00" from="3" to="27"/>
    <trip id="488" depart="991.00" from="-493" to="27"/>
    <trip id="489" depart="993.00" from="-27" to="338"/>
    <trip id="490" depart="993.00" from="3" to="338"/>
    <trip id="491" depart="994.00" from="-338" to="27"/>
    <trip id="492" depart="996.00" from="-330" to="330"/>
    <trip id="493" depart="997.00" from="-338" to="338"/>
    <trip id="494" depart="999.00" from="-497" to="338"/>
    <trip id="495" depart="1004.00" from="-27" to="338"/>
    <trip id="496" depart="1005.00" from="3" to="493"/>
    <trip id="497" depart="1006.00" from="-330" to="27"/>
    <trip id="498" depart="1007.00" from="-497" to="27"/>
    <trip id="499" depart="1008.00" from="-330" to="27"/>
    <trip id="500" depart="1015.00" from="3" to="338"/>
    <trip id="501" depart="1017.00" from="-338" to="330"/>
    <trip id="502" depart="1018.00" from="-497" to="493"/>
    <trip id="503" depart="1019.00" from="-338" to="330"/>