<?xml version="1.0" encoding="UTF-8"?>

<!-- generated on 2025-03-10 19:20:39.056046 by randomTrips.py v1_19_0+1770-8bb5c24c187
<configuration>
    <net-file value="random_subnetwork_2.net.xml"/>
    <output-trip-file value="random_subnetwork_2_light.trips.xml"/>
    <fringe-factor value="100"/>
    <min-distance value="800.0"/>
    <remove-loops value="True"/>
    <validate value="True"/>
    <period value="2.364418485042247"/>
    <random-depart value="True"/>
    <binomial value="10"/>
</configuration>
-->

<!-- generated on 2025-03-10 19:20:39 by Eclipse SUMO duarouter Version v1_19_0+1770-8bb5c24c187
<configuration xmlns:xsi="http://www.w3.org/2001/XMLSchema-instance" xsi:noNamespaceSchemaLocation="http://sumo.dlr.de/xsd/duarouterConfiguration.xsd">

    <input>
        <net-file value="random_subnetwork_2.net.xml"/>
        <route-files value="random_subnetwork_2_light.trips.xml"/>
    </input>

    <output>
        <output-file value="random_subnetwork_2_light.trips.xml.tmp"/>
        <alternatives-output value="NUL"/>
        <write-trips value="true"/>
    </output>

    <processing>
        <remove-loops value="true"/>
    </processing>

    <time>
        <begin value="0.0"/>
        <end value="3600.0"/>
    </time>

    <report>
        <no-warnings value="true"/>
        <ignore-errors value="true"/>
        <no-step-log value="true"/>
    </report>

</configuration>
-->

<routes xmlns:xsi="http://www.w3.org/2001/XMLSchema-instance" xsi:noNamespaceSchemaLocation="http://sumo.dlr.de/xsd/routes_file.xsd">
    <trip id="0" depart="0.00" from="-27" to="1926"/>
    <trip id="1" depart="0.00" from="-1926" to="-258"/>
    <trip id="2" depart="1.00" from="-1926" to="-1102"/>
    <trip id="3" depart="5.00" from="-270" to="1926"/>
    <trip id="4" depart="8.00" from="-678" to="275"/>
    <trip id="5" depart="10.00" from="-270" to="-1102"/>
    <trip id="6" depart="24.00" from="1102" to="1926"/>
    <trip id="7" depart="26.00" from="-678" to="275"/>
    <trip id="8" depart="27.00" from="-1926" to="497"/>
    <trip id="9" depart="29.00" from="-678" to="2054"/>
    <trip id="10" depart="31.00" from="1102" to="678"/>
    <trip id="11" depart="33.00" from="-497" to="2054"/>
    <trip id="12" depart="35.00" from="1439" to="301"/>
    <trip id="13" depart="36.00" from="-2054" to="275"/>
    <trip id="14" depart="37.00" from="-2054" to="27"/>
    <trip id="15" depart="42.00" from="-270" to="301"/>
    <trip id="16" depart="43.00" from="-270" to="275"/>
    <trip id="17" depart="43.00" from="-275" to="270"/>
    <trip id="18" depart="43.00" from="-497" to="-1439"/>
    <trip id="19" depart="45.00" from="-270" to="275"/>
    <trip id="20" depart="45.00" from="-497" to="270"/>
    <trip id="21" depart="46.00" from="-270" to="275"/>
    <trip id="22" depart="51.00" from="-270" to="497"/>
    <trip id="23" depart="51.00" from="-678" to="27"/>
    <trip id="24" depart="54.00" from="-301" to="1926"/>
    <trip id="25" depart="59.00" from="-275" to="270"/>
    <trip id="26" depart="62.00" from="-275" to="2054"/>
    <trip id="27" depart="63.00" from="-678" to="27"/>
    <trip id="28" depart="73.00" from="-301" to="270"/>
    <trip id="29" depart="75.00" from="-1926" to="275"/>
    <trip id="30" depart="78.00" from="1102" to="503"/>
    <trip id="31" depart="85.00" from="-27" to="-1102"/>
    <trip id="32" depart="88.00" from="-270" to="27"/>
    <trip id="33" depart="89.00" from="-789" to="1926"/>
    <trip id="34" depart="91.00" from="-2054" to="1926"/>
    <trip id="35" depart="91.00" from="-1926" to="301"/>
    <trip id="36" depart="100.00" from="1439" to="497"/>
    <trip id="37" depart="100.00" from="1102" to="270"/>
    <trip id="38" depart="101.00" from="-275" to="2054"/>
    <trip id="39" depart="103.00" from="-2054" to="1926"/>
    <trip id="40" depart="104.00" from="-678" to="-1439"/>
    <trip id="41" depart="104.00" from="1439" to="497"/>
    <trip id="42" depart="105.00" from="-270" to="43"/>
    <trip id="43" depart="118.00" from="-270" to="301"/>
    <trip id="44" depart="123.00" from="-1926" to="27"/>
    <trip id="45" depart="123.00" from="1439" to="497"/>
    <trip id="46" depart="124.00" from="1102" to="270"/>
    <trip id="47" depart="125.00" from="-301" to="1926"/>
    <trip id="48" depart="127.00" from="-678" to="275"/>
    <trip id="49" depart="129.00" from="289" to="270"/>
    <trip id="50" depart="134.00" from="-1926" to="301"/>
    <trip id="51" depart="139.00" from="-301" to="2054"/>
    <trip id="52" depart="144.00" from="-1926" to="275"/>
    <trip id="53" depart="149.00" from="1439" to="27"/>
    <trip id="54" depart="155.00" from="-275" to="678"/>
    <trip id="55" depart="156.00" from="-2054" to="275"/>
    <trip id="56" depart="163.00" from="-275" to="678"/>
    <trip id="57" depart="165.00" from="-301" to="-1439"/>
    <trip id="58" depart="169.00" from="-1926" to="-1439"/>
    <trip id="59" depart="175.00" from="43" to="2054"/>
    <trip id="60" depart="176.00" from="-497" to="270"/>
    <trip id="61" depart="178.00" from="-27" to="-1439"/>
    <trip id="62" depart="178.00" from="-1926" to="301"/>
    <trip id="63" depart="184.00" from="1439" to="678"/>
    <trip id="64" depart="189.00" from="1102" to="678"/>
    <trip id="65" depart="190.00" from="-301" to="2054"/>
    <trip id="66" depart="191.00" from="-301" to="-1102"/>
    <trip id="67" depart="191.00" from="1102" to="678"/>
    <trip id="68" depart="193.00" from="-2054" to="27"/>
    <trip id="69" depart="195.00" from="-2054" to="1926"/>
    <trip id="70" depart="197.00" from="-27" to="678"/>
    <trip id="71" depart="199.00" from="-270" to="2054"/>
    <trip id="72" depart="199.00" from="-270" to="-1102"/>
    <trip id="73" depart="209.00" from="-27" to="270"/>
    <trip id="74" depart="210.00" from="-2054" to="27"/>
    <trip id="75" depart="213.00" from="-497" to="2054"/>
    <trip id="76" depart="218.00" from="-2054" to="497"/>
    <trip id="77" depart="219.00" from="-27" to="270"/>
    <trip id="78" depart="220.00" from="-678" to="270"/>
    <trip id="79" depart="226.00" from="-678" to="27"/>
    <trip id="80" depart="228.00" from="-503" to="-1439"/>
    <trip id="81" depart="230.00" from="-275" to="-1439"/>
    <trip id="82" depart="230.00" from="-678" to="497"/>
    <trip id="83" depart="232.00" from="-678" to="275"/>
    <trip id="84" depart="237.00" from="-1926" to="-1102"/>
    <trip id="85" depart="241.00" from="1102" to="1926"/>
    <trip id="86" depart="246.00" from="-270" to="275"/>
    <trip id="87" depart="247.00" from="-275" to="1926"/>
    <trip id="88" depart="247.00" from="-678" to="-1439"/>
    <trip id="89" depart="252.00" from="-497" to="1926"/>
    <trip id="90" depart="252.00" from="1102" to="678"/>
    <trip id="91" depart="253.00" from="-275" to="-1439"/>
    <trip id="92" depart="254.00" from="-497" to="-1439"/>
    <trip id="93" depart="255.00" from="-497" to="1926"/>
    <trip id="94" depart="260.00" from="-301" to="270"/>
    <trip id="95" depart="261.00" from="-2054" to="301"/>
    <trip id="96" depart="261.00" from="-678" to="497"/>
    <trip id="97" depart="264.00" from="-497" to="678"/>
    <trip id="98" depart="266.00" from="-270" to="301"/>
    <trip id="99" depart="269.00" from="-1926" to="-43"/>
    <trip id="100" depart="271.00" from="-2054" to="1926"/>
    <trip id="101" depart="279.00" from="-27" to="-1439"/>
    <trip id="102" depart="280.00" from="1439" to="497"/>
    <trip id="103" depart="280.00" from="1102" to="1926"/>
    <trip id="104" depart="282.00" from="-2054" to="497"/>
    <trip id="105" depart="283.00" from="-2054" to="497"/>
    <trip id="106" depart="285.00" from="-497" to="270"/>
    <trip id="107" depart="285.00" from="-270" to="678"/>
    <trip id="108" depart="289.00" from="-678" to="270"/>
    <trip id="109" depart="295.00" from="-2054" to="301"/>
    <trip id="110" depart="296.00" from="154" to="2054"/>
    <trip id="111" depart="296.00" from="-270" to="497"/>
    <trip id="112" depart="299.00" from="1102" to="1926"/>
    <trip id="113" depart="300.00" from="-518" to="27"/>
    <trip id="114" depart="302.00" from="-15" to="275"/>
    <trip id="115" depart="304.00" from="-270" to="301"/>
    <trip id="116" depart="307.00" from="-27" to="2054"/>
    <trip id="117" depart="312.00" from="-1926" to="270"/>
    <trip id="118" depart="323.00" from="-2054" to="275"/>
    <trip id="119" depart="324.00" from="1102" to="301"/>
    <trip id="120" depart="325.00" from="-678" to="497"/>
    <trip id="121" depart="330.00" from="1439" to="275"/>
    <trip id="122" depart="333.00" from="-1926" to="275"/>
    <trip id="123" depart="335.00" from="-497" to="270"/>
    <trip id="124" depart="338.00" from="-497" to="270"/>
    <trip id="125" depart="343.00" from="-27" to="1926"/>
    <trip id="126" depart="345.00" from="-301" to="-1102"/>
    <trip id="127" depart="353.00" from="-1926" to="270"/>
    <trip id="128" depart="353.00" from="-301" to="-1102"/>
    <trip id="129" depart="354.00" from="-678" to="275"/>
    <trip id="130" depart="357.00" from="-678" to="27"/>
    <trip id="131" depart="360.00" from="-270" to="2054"/>
    <trip id="132" depart="364.00" from="-1926" to="-1439"/>
    <trip id="133" depart="364.00" from="-270" to="678"/>
    <trip id="134" depart="366.00" from="-497" to="270"/>
    <trip id="135" depart="366.00" from="-27" to="-11"/>
    <trip id="136" depart="370.00" from="-497" to="678"/>
    <trip id="137" depart="371.00" from="1102" to="1926"/>
    <trip id="138" depart="373.00" from="1439" to="497"/>
    <trip id="139" depart="375.00" from="-27" to="270"/>
    <trip id="140" depart="380.00" from="-2054" to="497"/>
    <trip id="141" depart="384.00" from="-678" to="275"/>
    <trip id="142" depart="385.00" from="-2054" to="275"/>
    <trip id="143" depart="386.00" from="-270" to="27"/>
    <trip id="144" depart="388.00" from="-270" to="27"/>
    <trip id="145" depart="388.00" from="1439" to="678"/>
    <trip id="146" depart="388.00" from="-275" to="1926"/>
    <trip id="147" depart="388.00" from="-301" to="2054"/>
    <trip id="148" depart="391.00" from="-1926" to="270"/>
    <trip id="149" depart="394.00" from="-270" to="2054"/>
    <trip id="150" depart="394.00" from="-258" to="497"/>
    <trip id="151" depart="395.00" from="-1926" to="301"/>
    <trip id="152" depart="400.00" from="-497" to="2054"/>
    <trip id="153" depart="400.00" from="1102" to="301"/>
    <trip id="154" depart="404.00" from="1439" to="678"/>
    <trip id="155" depart="409.00" from="-27" to="270"/>
    <trip id="156" depart="410.00" from="-1926" to="2054"/>
    <trip id="157" depart="412.00" from="-678" to="2054"/>
    <trip id="158" depart="412.00" from="-301" to="-1439"/>
    <trip id="159" depart="416.00" from="-270" to="678"/>
    <trip id="160" depart="418.00" from="-678" to="-1439"/>
    <trip id="161" depart="418.00" from="-27" to="270"/>
    <trip id="162" depart="419.00" from="-1926" to="-1439"/>
    <trip id="163" depart="420.00" from="-270" to="1926"/>
    <trip id="164" depart="420.00" from="-27" to="2054"/>
    <trip id="165" depart="421.00" from="-27" to="270"/>
    <trip id="166" depart="422.00" from="-301" to="1926"/>
    <trip id="167" depart="429.00" from="-678" to="-1102"/>
    <trip id="168" depart="431.00" from="-678" to="2054"/>
    <trip id="169" depart="439.00" from="1102" to="1926"/>
    <trip id="170" depart="440.00" from="1102" to="1926"/>
    <trip id="171" depart="445.00" from="-1926" to="275"/>
    <trip id="172" depart="446.00" from="-27" to="1926"/>
    <trip id="173" depart="447.00" from="-497" to="2054"/>
    <trip id="174" depart="447.00" from="-270" to="275"/>
    <trip id="175" depart="450.00" from="1102" to="270"/>
    <trip id="176" depart="450.00" from="1439" to="27"/>
    <trip id="177" depart="450.00" from="-2054" to="678"/>
    <trip id="178" depart="452.00" from="1439" to="275"/>
    <trip id="179" depart="454.00" from="-497" to="270"/>
    <trip id="180" depart="459.00" from="-275" to="2054"/>
    <trip id="181" depart="464.00" from="-301" to="2054"/>
    <trip id="182" depart="465.00" from="11" to="2054"/>
    <trip id="183" depart="468.00" from="-678" to="27"/>
    <trip id="184" depart="474.00" from="1439" to="301"/>
    <trip id="185" depart="475.00" from="-497" to="-1439"/>
    <trip id="186" depart="479.00" from="1439" to="27"/>
    <trip id="187" depart="479.00" from="1439" to="275"/>
    <trip id="188" depart="482.00" from="-1926" to="-1439"/>
    <trip id="189" depart="482.00" from="1439" to="275"/>
    <trip id="190" depart="488.00" from="1439" to="497"/>
    <trip id="191" depart="490.00" from="-678" to="497"/>
    <trip id="192" depart="492.00" from="-1926" to="301"/>
    <trip id="193" depart="493.00" from="-2054" to="275"/>
    <trip id="194" depart="497.00" from="-1926" to="497"/>
    <trip id="195" depart="497.00" from="-678" to="275"/>
    <trip id="196" depart="498.00" from="-2054" to="27"/>
    <trip id="197" depart="498.00" from="-27" to="-1439"/>
    <trip id="198" depart="507.00" from="-1926" to="270"/>
    <trip id="199" depart="508.00" from="-2054" to="1926"/>
    <trip id="200" depart="509.00" from="-1926" to="27"/>
    <trip id="201" depart="519.00" from="-27" to="-1439"/>
    <trip id="202" depart="520.00" from="-270" to="2054"/>
    <trip id="203" depart="521.00" from="-270" to="301"/>
    <trip id="204" depart="523.00" from="1439" to="678"/>
    <trip id="205" depart="527.00" from="-15" to="1926"/>
    <trip id="206" depart="533.00" from="-301" to="2054"/>
    <trip id="207" depart="536.00" from="1102" to="1926"/>
    <trip id="208" depart="540.00" from="-27" to="-1439"/>
    <trip id="209" depart="542.00" from="-27" to="270"/>
    <trip id="210" depart="549.00" from="-275" to="678"/>
    <trip id="211" depart="550.00" from="-270" to="301"/>
    <trip id="212" depart="552.00" from="-1926" to="497"/>
    <trip id="213" depart="552.00" from="-1926" to="2054"/>
    <trip id="214" depart="553.00" from="-270" to="27"/>
    <trip id="215" depart="559.00" from="-678" to="497"/>
    <trip id="216" depart="562.00" from="-27" to="493"/>
    <trip id="217" depart="563.00" from="-270" to="275"/>
    <trip id="218" depart="567.00" from="1439" to="275"/>
    <trip id="219" depart="570.00" from="1439" to="27"/>
    <trip id="220" depart="571.00" from="-1926" to="275"/>
    <trip id="221" depart="579.00" from="-678" to="275"/>
    <trip id="222" depart="584.00" from="-275" to="678"/>
    <trip id="223" depart="585.00" from="-270" to="301"/>
    <trip id="224" depart="587.00" from="-275" to="270"/>
    <trip id="225" depart="588.00" from="1439" to="275"/>
    <trip id="226" depart="593.00" from="-270" to="27"/>
    <trip id="227" depart="598.00" from="1102" to="678"/>
    <trip id="228" depart="599.00" from="1439" to="497"/>
    <trip id="229" depart="600.00" from="-1926" to="-1102"/>
    <trip id="230" depart="603.00" from="-27" to="-1439"/>
    <trip id="231" depart="606.00" from="-2054" to="497"/>
    <trip id="232" depart="606.00" from="-1926" to="27"/>
    <trip id="233" depart="609.00" from="-2054" to="275"/>
    <trip id="234" depart="612.00" from="1102" to="678"/>
    <trip id="235" depart="614.00" from="-27" to="270"/>
    <trip id="236" depart="616.00" from="-270" to="301"/>
    <trip id="237" depart="617.00" from="1102" to="270"/>
    <trip id="238" depart="624.00" from="-3" to="1926"/>
    <trip id="239" depart="630.00" from="-789" to="1926"/>
    <trip id="240" depart="631.00" from="-27" to="-1439"/>
    <trip id="241" depart="632.00" from="-1926" to="2054"/>
    <trip id="242" depart="636.00" from="-27" to="678"/>
    <trip id="243" depart="636.00" from="1439" to="27"/>
    <trip id="244" depart="639.00" from="-678" to="275"/>
    <trip id="245" depart="639.00" from="-497" to="266"/>
    <trip id="246" depart="640.00" from="-497" to="2054"/>
    <trip id="247" depart="641.00" from="-275" to="678"/>
    <trip id="248" depart="641.00" from="-27" to="678"/>
    <trip id="249" depart="647.00" from="-301" to="-1102"/>
    <trip id="250" depart="650.00" from="-270" to="497"/>
    <trip id="251" depart="651.00" from="-270" to="301"/>
    <trip id="252" depart="655.00" from="-1926" to="27"/>
    <trip id="253" depart="657.00" from="-27" to="-1102"/>
    <trip id="254" depart="658.00" from="-2054" to="1926"/>
    <trip id="255" depart="659.00" from="-21" to="-1439"/>
    <trip id="256" depart="659.00" from="1102" to="678"/>
    <trip id="257" depart="660.00" from="-497" to="2054"/>
    <trip id="258" depart="665.00" from="-27" to="-295"/>
    <trip id="259" depart="668.00" from="-266" to="-1916"/>
    <trip id="260" depart="670.00" from="-270" to="497"/>
    <trip id="261" depart="673.00" from="-270" to="27"/>
    <trip id="262" depart="673.00" from="-2054" to="678"/>
    <trip id="263" depart="675.00" from="-515" to="27"/>
    <trip id="264" depart="678.00" from="1102" to="27"/>
    <trip id="265" depart="683.00" from="-2054" to="678"/>
    <trip id="266" depart="684.00" from="-301" to="2054"/>
    <trip id="267" depart="685.00" from="-678" to="497"/>
    <trip id="268" depart="686.00" from="-27" to="-1102"/>
    <trip id="269" depart="693.00" from="1439" to="301"/>
    <trip id="270" depart="694.00" from="-27" to="270"/>
    <trip id="271" depart="695.00" from="-2054" to="275"/>
    <trip id="272" depart="698.00" from="-270" to="497"/>
    <trip id="273" depart="700.00" from="1439" to="678"/>
    <trip id="274" depart="700.00" from="-275" to="1926"/>
    <trip id="275" depart="702.00" from="-497" to="1926"/>
    <trip id="276" depart="702.00" from="-678" to="275"/>
    <trip id="277" depart="705.00" from="-1926" to="275"/>
    <trip id="278" depart="708.00" from="-1926" to="270"/>
    <trip id="279" depart="709.00" from="-497" to="678"/>
    <trip id="280" depart="712.00" from="-270" to="-1102"/>
    <trip id="281" depart="720.00" from="-1926" to="270"/>
    <trip id="282" depart="728.00" from="-678" to="270"/>
    <trip id="283" depart="729.00" from="-497" to="2054"/>
    <trip id="284" depart="731.00" from="-301" to="270"/>
    <trip id="285" depart="732.00" from="-301" to="270"/>
    <trip id="286" depart="735.00" from="1439" to="27"/>
    <trip id="287" depart="735.00" from="-270" to="678"/>
    <trip id="288" depart="740.00" from="-301" to="-1102"/>
    <trip id="289" depart="741.00" from="-270" to="678"/>
    <trip id="290" depart="743.00" from="-301" to="-1439"/>
    <trip id="291" depart="752.00" from="-275" to="2054"/>
    <trip id="292" depart="752.00" from="-301" to="-1102"/>
    <trip id="293" depart="755.00" from="-258" to="27"/>
    <trip id="294" depart="756.00" from="-2054" to="27"/>
    <trip id="295" depart="759.00" from="-1926" to="-1102"/>
    <trip id="296" depart="761.00" from="-1926" to="301"/>
    <trip id="297" depart="762.00" from="-270" to="301"/>
    <trip id="298" depart="766.00" from="1102" to="678"/>
    <trip id="299" depart="768.00" from="-2054" to="497"/>
    <trip id="300" depart="769.00" from="-270" to="-1102"/>
    <trip id="301" depart="773.00" from="-1926" to="-1102"/>
    <trip id="302" depart="774.00" from="1102" to="301"/>
    <trip id="303" depart="775.00" from="1439" to="678"/>
    <trip id="304" depart="777.00" from="-275" to="-1439"/>
    <trip id="305" depart="781.00" from="-497" to="2054"/>
    <trip id="307" depart="787.00" from="-678" to="275"/>
    <trip id="308" depart="787.00" from="-270" to="-1102"/>
    <trip id="309" depart="789.00" from="-678" to="27"/>
    <trip id="310" depart="789.00" from="1102" to="270"/>
    <trip id="311" depart="792.00" from="-27" to="270"/>
    <trip id="312" depart="793.00" from="-27" to="678"/>
    <trip id="313" depart="793.00" from="-270" to="1926"/>
    <trip id="314" depart="800.00" from="1102" to="678"/>
    <trip id="315" depart="802.00" from="1102" to="1926"/>
    <trip id="316" depart="804.00" from="-2054" to="27"/>
    <trip id="317" depart="805.00" from="-497" to="2054"/>
    <trip id="318" depart="808.00" from="-678" to="270"/>
    <trip id="319" depart="810.00" from="-2054" to="27"/>
    <trip id="320" depart="811.00" from="1439" to="27"/>
    <trip id="322" depart="816.00" from="-270" to="1926"/>
    <trip id="323" depart="817.00" from="-497" to="2054"/>
    <trip id="324" depart="820.00" from="-1926" to="2054"/>
    <trip id="325" depart="823.00" from="-1926" to="275"/>
    <trip id="326" depart="824.00" from="-2054" to="270"/>
    <trip id="327" depart="824.00" from="1439" to="678"/>
    <trip id="328" depart="825.00" from="-1926" to="270"/>
    <trip id="329" depart="829.00" from="-301" to="270"/>
    <trip id="330" depart="830.00" from="-1926" to="275"/>
    <trip id="331" depart="830.00" from="-270" to="27"/>
    <trip id="332" depart="834.00" from="-678" to="2054"/>
    <trip id="333" depart="835.00" from="-1926" to="-1102"/>
    <trip id="334" depart="840.00" from="-27" to="270"/>
    <trip id="335" depart="843.00" from="-27" to="678"/>
    <trip id="336" depart="845.00" from="-27" to="-1102"/>
    <trip id="337" depart="848.00" from="-275" to="2054"/>
    <trip id="338" depart="851.00" from="-270" to="301"/>
    <trip id="339" depart="852.00" from="1439" to="497"/>
    <trip id="340" depart="854.00" from="-301" to="2054"/>
    <trip id="341" depart="856.00" from="-270" to="27"/>
    <trip id="342" depart="856.00" from="-27" to="2054"/>
    <trip id="343" depart="861.00" from="-497" to="1926"/>
    <trip id="344" depart="862.00" from="-1926" to="497"/>
    <trip id="345" depart="864.00" from="-2054" to="-11"/>
    <trip id="346" depart="868.00" from="-275" to="270"/>
    <trip id="347" depart="868.00" from="-270" to="275"/>
    <trip id="348" depart="882.00" from="-270" to="1926"/>
    <trip id="349" depart="883.00" from="-1926" to="270"/>
    <trip id="350" depart="884.00" from="-1926" to="27"/>
    <trip id="351" depart="884.00" from="-1926" to="301"/>
    <trip id="352" depart="887.00" from="-678" to="497"/>
    <trip id="353" depart="892.00" from="-27" to="2054"/>
    <trip id="354" depart="894.00" from="1439" to="678"/>
    <trip id="355" depart="896.00" from="1102" to="678"/>
    <trip id="356" depart="900.00" from="-301" to="-1102"/>
    <trip id="357" depart="904.00" from="-301" to="270"/>
    <trip id="358" depart="904.00" from="-678" to="2054"/>
    <trip id="359" depart="910.00" from="-2054" to="1926"/>
    <trip id="360" depart="910.00" from="1102" to="678"/>
    <trip id="361" depart="917.00" from="1439" to="678"/>
    <trip id="362" depart="918.00" from="-27" to="678"/>
    <trip id="363" depart="921.00" from="1439" to="275"/>
    <trip id="364" depart="922.00" from="-1926" to="270"/>
    <trip id="365" depart="929.00" from="-1926" to="301"/>
    <trip id="366" depart="931.00" from="-275" to="-1439"/>
    <trip id="367" depart="932.00" from="1102" to="270"/>
    <trip id="368" depart="933.00" from="-27" to="-295"/>
    <trip id="369" depart="934.00" from="-301" to="2054"/>
    <trip id="370" depart="938.00" from="1102" to="270"/>
    <trip id="371" depart="940.00" from="-275" to="-1439"/>
    <trip id="372" depart="943.00" from="-275" to="-1439"/>
    <trip id="373" depart="951.00" from="-270" to="27"/>
    <trip id="374" depart="952.00" from="-275" to="270"/>
    <trip id="375" depart="952.00" from="-270" to="-1102"/>
    <trip id="376" depart="952.00" from="-1926" to="275"/>
    <trip id="377" depart="954.00" from="-1926" to="497"/>
    <trip id="378" depart="955.00" from="-270" to="301"/>
    <trip id="379" depart="957.00" from="-27" to="2054"/>
    <trip id="380" depart="962.00" from="-678" to="2054"/>
    <trip id="381" depart="963.00" from="-2054" to="275"/>
    <trip id="382" depart="964.00" from="-678" to="275"/>
    <trip id="383" depart="964.00" from="-275" to="2054"/>
    <trip id="384" depart="964.00" from="1102" to="27"/>
    <trip id="385" depart="966.00" from="1439" to="678"/>
    <trip id="386" depart="968.00" from="-2054" to="497"/>
    <trip id="387" depart="973.00" from="1439" to="27"/>
    <trip id="388" depart="974.00" from="-270" to="27"/>
    <trip id="389" depart="978.00" from="-270" to="275"/>
    <trip id="390" depart="979.00" from="-1926" to="-1102"/>
    <trip id="391" depart="981.00" from="1439" to="1926"/>
    <trip id="392" depart="984.00" from="-275" to="-1439"/>
    <trip id="393" depart="984.00" from="-270" to="-1102"/>
    <trip id="394" depart="985.00" from="-270" to="2054"/>
    <trip id="395" depart="986.00" from="1102" to="678"/>
    <trip id="396" depart="987.00" from="-497" to="-1439"/>
    <trip id="397" depart="988.00" from="-3" to="1926"/>
    <trip id="398" depart="996.00" from="-1926" to="275"/>
    <trip id="399" depart="998.00" from="-27" to="2054"/>
    <trip id="400" depart="1003.00" from="-27" to="1926"/>
    <trip id="401" depart="1005.00" from="-270" to="1926"/>
    <trip id="402" depart="1008.00" from="-497" to="270"/>
    <trip id="403" depart="1012.00" from="-678" to="270"/>
    <trip id="404" depart="1019.00" from="-270" to="2054"/>
    <trip id="405" depart="1023.00" from="-678" to="-1102"/>
    <trip id="406" depart="1025.00" from="-2054" to="21"/>
    <trip id="407" depart="1025.00" from="1102" to="27"/>
    <trip id="408" depart="1028.00" from="-301" to="-1102"/>
    <trip id="409" depart="1028.00" from="-27" to="1926"/>
    <trip id="410" depart="1030.00" from="-678" to="270"/>
    <trip id="411" depart="1034.00" from="1439" to="497"/>
    <trip id="412" depart="1039.00" from="1102" to="678"/>
    <trip id="413" depart="1039.00" from="-275" to="678"/>
    <trip id="414" depart="1044.00" from="-1926" to="154"/>
    <trip id="415" depart="1044.00" from="-275" to="2054"/>
    <trip id="416" depart="1048.00" from="-678" to="2054"/>
    <trip id="417" depart="1051.00" from="-27" to="270"/>
    <trip id="418" depart="1054.00" from="-2054" to="1926"/>
    <trip id="419" depart="1063.00" from="-301" to="-1102"/>
    <trip id="420" depart="1070.00" from="1102" to="678"/>
    <trip id="421" depart="1071.00" from="-27" to="-1102"/>
    <trip id="422" depart="1079.00" from="1439" to="275"/>
    <trip id="423" depart="1082.00" from="-497" to="678"/>
    <trip id="424" depart="1083.00" from="-270" to="-1102"/>
    <trip id="425" depart="1085.00" from="-1926" to="270"/>
    <trip id="426" depart="1090.00" from="-2054" to="270"/>
    <trip id="427" depart="1091.00" from="1439" to="1926"/>
    <trip id="429" depart="1094.00" from="1102" to="678"/>
    <trip id="430" depart="1100.00" from="1439" to="301"/>
    <trip id="431" depart="1107.00" from="-301" to="1926"/>
    <trip id="432" depart="1114.00" from="1102" to="1926"/>
    <trip id="433" depart="1117.00" from="-503" to="497"/>
    <trip id="434" depart="1120.00" from="1439" to="27"/>
    <trip id="435" depart="1121.00" from="-301" to="-1439"/>
    <trip id="436" depart="1122.00" from="-270" to="678"/>
    <trip id="437" depart="1122.00" from="-270" to="493"/>
    <trip id="438" depart="1125.00" from="-1926" to="497"/>
    <trip id="439" depart="1126.00" from="1102" to="1926"/>
    <trip id="440" depart="1128.00" from="-2054" to="-21"/>
    <trip id="441" depart="1131.00" from="-678" to="-1102"/>
    <trip id="442" depart="1134.00" from="295" to="275"/>
    <trip id="443" depart="1134.00" from="-2054" to="270"/>
    <trip id="444" depart="1135.00" from="-270" to="1926"/>
    <trip id="445" depart="1137.00" from="-275" to="-1439"/>
    <trip id="446" depart="1140.00" from="-301" to="-1102"/>
    <trip id="447" depart="1144.00" from="-27" to="-1439"/>
    <trip id="448" depart="1144.00" from="-1926" to="27"/>
    <trip id="449" depart="1147.00" from="-27" to="270"/>
    <trip id="450" depart="1152.00" from="-678" to="27"/>
    <trip id="451" depart="1152.00" from="-301" to="-1102"/>
    <trip id="452" depart="1154.00" from="-301" to="2054"/>
    <trip id="453" depart="1154.00" from="1102" to="301"/>
    <trip id="454" depart="1158.00" from="-1926" to="-1102"/>
    <trip id="455" depart="1158.00" from="-27" to="-11"/>
    <trip id="456" depart="1159.00" from="-275" to="678"/>
    <trip id="457" depart="1161.00" from="-301" to="-1102"/>
    <trip id="458" depart="1161.00" from="1439" to="275"/>
    <trip id="459" depart="1171.00" from="1102" to="27"/>
    <trip id="460" depart="1172.00" from="-1926" to="-1439"/>
    <trip id="461" depart="1173.00" from="-270" to="-1102"/>
    <trip id="462" depart="1174.00" from="-1926" to="27"/>
    <trip id="463" depart="1176.00" from="-270" to="301"/>
    <trip id="464" depart="1176.00" from="-2054" to="497"/>
    <trip id="465" depart="1178.00" from="-678" to="497"/>
    <trip id="466" depart="1180.00" from="-497" to="-1439"/>
    <trip id="467" depart="1183.00" from="-1926" to="301"/>
    <trip id="468" depart="1184.00" from="1439" to="497"/>
    <trip id="469" depart="1187.00" from="-497" to="678"/>
    <trip id="470" depart="1188.00" from="-1926" to="-1102"/>
    <trip id="471" depart="1196.00" from="-2054" to="678"/>
    <trip id="472" depart="1199.00" from="-270" to="275"/>
    <trip id="473" depart="1206.00" from="1439" to="1926"/>
    <trip id="474" depart="1213.00" from="1102" to="301"/>
    <trip id="475" depart="1213.00" from="-301" to="-1102"/>
    <trip id="476" depart="1214.00" from="-497" to="2054"/>
    <trip id="477" depart="1217.00" from="-2054" to="497"/>
    <trip id="478" depart="1218.00" from="1439" to="678"/>
    <trip id="479" depart="1220.00" from="-27" to="270"/>
    <trip id="480" depart="1220.00" from="-27" to="-1102"/>
    <trip id="481" depart="1221.00" from="-301" to="-1102"/>
    <trip id="482" depart="1222.00" from="-270" to="678"/>
    <trip id="483" depart="1223.00" from="-1926" to="497"/>
    <trip id="484" depart="1229.00" from="-43" to="2054"/>
    <trip id="485" depart="1230.00" from="303" to="-1102"/>
    <trip id="486" depart="1231.00" from="-1926" to="270"/>
    <trip id="487" depart="1233.00" from="-678" to="497"/>
    <trip id="488" depart="1237.00" from="-1926" to="-1102"/>
    <trip id="490" depart="1240.00" from="-301" to="-518"/>