<?xml version="1.0" encoding="UTF-8"?>

<!-- generated on 2025-03-10 19:20:41.079217 by randomTrips.py v1_19_0+1770-8bb5c24c187
<configuration>
    <net-file value="random_subnetwork_3.net.xml"/>
    <output-trip-file value="random_subnetwork_3_medium.trips.xml"/>
    <fringe-factor value="100"/>
    <min-distance value="800.0"/>
    <remove-loops value="True"/>
    <validate value="True"/>
    <period value="2.0662342880101017"/>
    <random-depart value="True"/>
    <binomial value="10"/>
</configuration>
-->

<!-- generated on 2025-03-10 19:20:41 by Eclipse SUMO duarouter Version v1_19_0+1770-8bb5c24c187
<configuration xmlns:xsi="http://www.w3.org/2001/XMLSchema-instance" xsi:noNamespaceSchemaLocation="http://sumo.dlr.de/xsd/duarouterConfiguration.xsd">

    <input>
        <net-file value="random_subnetwork_3.net.xml"/>
        <route-files value="random_subnetwork_3_medium.trips.xml"/>
    </input>

    <output>
        <output-file value="random_subnetwork_3_medium.trips.xml.tmp"/>
        <alternatives-output value="NUL"/>
        <write-trips value="true"/>
    </output>

    <processing>
        <remove-loops value="true"/>
    </processing>

    <time>
        <begin value="0.0"/>
        <end value="3600.0"/>
    </time>

    <report>
        <no-warnings value="true"/>
        <ignore-errors value="true"/>
        <no-step-log value="true"/>
    </report>

</configuration>
-->

<routes xmlns:xsi="http://www.w3.org/2001/XMLSchema-instance" xsi:noNamespaceSchemaLocation="http://sumo.dlr.de/xsd/routes_file.xsd">
    <trip id="8" depart="20.00" from="-663" to="1799" via="500"/>
    <trip id="12" depart="26.00" from="-663" to="1799" via="500"/>
    <trip id="17" depart="33.00" from="-663" to="1799" via="500"/>
    <trip id="30" depart="60.00" from="-663" to="1799" via="500"/>
    <trip id="33" depart="69.00" from="-663" to="1799" via="500"/>
    <trip id="49" depart="102.00" from="-663" to="1799" via="500"/>
    <trip id="53" depart="109.00" from="-663" to="1799" via="500"/>
    <trip id="54" depart="114.00" from="-663" to="1799" via="500"/>
    <trip id="63" depart="135.00" from="-663" to="1799" via="500"/>
    <trip id="68" depart="141.00" from="-663" to="1799" via="500"/>
    <trip id="70" depart="150.00" from="-663" to="1799" via="500"/>
    <trip id="78" depart="163.00" from="-663" to="1799" via="500"/>
    <trip id="79" depart="165.00" from="-663" to="1799" via="500"/>
    <trip id="110" depart="220.00" from="-663" to="1799" via="500"/>
    <trip id="119" depart="246.00" from="-663" to="1799" via="500"/>
    <trip id="125" depart="258.00" from="-663" to="1799" via="500"/>
    <trip id="133" depart="275.00" from="-663" to="1799" via="500"/>
    <trip id="139" depart="284.00" from="-663" to="1799" via="500"/>
    <trip id="158" depart="319.00" from="-663" to="1799" via="500"/>
    <trip id="168" depart="343.00" from="-663" to="1799" via="500"/>
    <trip id="173" depart="348.00" from="-663" to="1799" via="500"/>
    <trip id="174" depart="349.00" from="-663" to="1799" via="500"/>
    <trip id="192" depart="391.00" from="-663" to="1799" via="500"/>
    <trip id="194" depart="395.00" from="-663" to="1799" via="500"/>
    <trip id="200" depart="413.00" from="-663" to="1799" via="500"/>
    <trip id="203" depart="416.00" from="-663" to="1799" via="500"/>
    <trip id="205" depart="421.00" from="-663" to="1799" via="500"/>
    <trip id="223" depart="454.00" from="-663" to="1799" via="500"/>
    <trip id="230" depart="472.00" from="-663" to="1799" via="500"/>
    <trip id="234" depart="478.00" from="-663" to="1799" via="500"/>
    <trip id="244" depart="502.00" from="-663" to="1799" via="500"/>
    <trip id="251" depart="522.00" from="-663" to="1799" via="500"/>
    <trip id="272" depart="562.00" from="-663" to="1799" via="500"/>
    <trip id="277" depart="572.00" from="-663" to="1799" via="500"/>
    <trip id="286" depart="588.00" from="-663" to="1799" via="500"/>
    <trip id="291" depart="599.00" from="-663" to="1799" via="500"/>
    <trip id="297" depart="609.00" from="-663" to="1799" via="500"/>
    <trip id="304" depart="629.00" from="-663" to="1799" via="500"/>
    <trip id="309" depart="640.00" from="-663" to="1799" via="500"/>
    <trip id="321" depart="670.00" from="-663" to="1799" via="500"/>
    <trip id="336" depart="696.00" from="-663" to="1799" via="500"/>
    <trip id="338" depart="700.00" from="-663" to="1799" via="500"/>
    <trip id="363" depart="763.00" from="-663" to="1799" via="500"/>
    <trip id="365" depart="771.00" from="-663" to="1799" via="500"/>
    <trip id="397" depart="849.00" from="-663" to="1799" via="500"/>
    <trip id="415" depart="890.00" from="-663" to="1799" via="500"/>
    <trip id="425" depart="905.00" from="-663" to="1799" via="500"/>
    <trip id="458" depart="973.00" from="-663" to="1799" via="500"/>
    <trip id="473" depart="1004.00" from="-663" to="1799" via="500"/>
    <trip id="474" depart="1006.00" from="-663" to="1799" via="500"/>
    <trip id="477" depart="1008.00" from="-663" to="1799" via="500"/>
    <trip id="481" depart="1014.00" from="-663" to="1799" via="500"/>
    <trip id="497" depart="1052.00" from="-663" to="1799" via="500"/>
    <trip id="508" depart="1070.00" from="-663" to="1799" via="500"/>
    <trip id="525" depart="1110.00" from="-663" to="1799" via="500"/>
    <trip id="528" depart="1119.00" from="-663" to="1799" via="500"/>
    <trip id="530" depart="1120.00" from="-663" to="1799" via="500"/>
    <trip id="538" depart="1139.00" from="-663" to="1799" via="500"/>
    <trip id="556" depart="1177.00" from="-663" to="1799" via="500"/>
    <trip id="564" depart="1193.00" from="-663" to="1799" via="500"/>
    <trip id="574" depart="1207.00" from="-663" to="1799" via="500"/>
    <trip id="582" depart="1217.00" from="-663" to="1799" via="500"/>
    <trip id="590" depart="1234.00" from="-663" to="1799" via="500"/>
    <trip id="591" depart="1235.00" from="-663" to="1799" via="500"/>
    <trip id="602" depart="1250.00" from="-663" to="1799" via="500"/>
    <trip id="616" depart="1279.00" from="-663" to="1799" via="500"/>
    <trip id="618" depart="1280.00" from="-663" to="1799" via="500"/>
    <trip id="623" depart="1285.00" from="-663" to="1799" via="500"/>
    <trip id="626" depart="1289.00" from="-663" to="1799" via="500"/>
    <trip id="636" depart="1306.00" from="-663" to="1799" via="500"/>
    <trip id="639" depart="1308.00" from="-663" to="1799" via="500"/>
    <trip id="660" depart="1346.00" from="-663" to="1799" via="500"/>
    <trip id="661" depart="1346.00" from="-663" to="1799" via="500"/>
    <trip id="666" depart="1360.00" from="-663" to="1799" via="500"/>
    <trip id="668" depart="1365.00" from="-663" to="1799" via="500"/>
    <trip id="669" depart="1366.00" from="-663" to="1799" via="500"/>
    <trip id="683" depart="1387.00" from="-663" to="1799" via="500"/>
    <trip id="684" depart="1389.00" from="-663" to="1799" via="500"/>
    <trip id="685" depart="1390.00" from="-663" to="1799" via="500"/>
    <trip id="690" depart="1403.00" from="-663" to="1799" via="500"/>
    <trip id="694" depart="1408.00" from="-663" to="1799" via="500"/>
    <trip id="695" depart="1408.00" from="-663" to="1799" via="500"/>
    <trip id="698" depart="1413.00" from="-663" to="1799" via="500"/>
    <trip id="707" depart="1426.00" from="-663" to="1799" via="500"/>
    <trip id="708" depart="1428.00" from="-663" to="1799" via="500"/>
    <trip id="723" depart="1459.00" from="-663" to="1799" via="500"/>
    <trip id="733" depart="1484.00" from="-663" to="1799" via="500"/>
    <trip id="737" depart="1494.00" from="-663" to="1799" via="500"/>
    <trip id="742" depart="1512.00" from="-663" to="1799" via="500"/>
    <trip id="744" depart="1513.00" from="-663" to="1799" via="500"/>
    <trip id="754" depart="1529.00" from="-663" to="1799" via="500"/>
    <trip id="755" depart="1529.00" from="-663" to="1799" via="500"/>
    <trip id="763" depart="1544.00" from="-663" to="1799" via="500"/>
    <trip id="770" depart="1575.00" from="-663" to="1799" via="500"/>
    <trip id="778" depart="1605.00" from="-663" to="1799" via="500"/>
    <trip id="791" depart="1635.00" from="-663" to="1799" via="500"/>
    <trip id="801" depart="1655.00" from="-663" to="1799" via="500"/>
    <trip id="803" depart="1661.00" from="-663" to="1799" via="500"/>
    <trip id="804" depart="1662.00" from="-663" to="1799" via="500"/>
    <trip id="826" depart="1698.00" from="-663" to="1799" via="500"/>
    <trip id="862" depart="1776.00" from="-663" to="1799" via="500"/>
    <trip id="874" depart="1794.00" from="-663" to="1799" via="500"/>
    <trip id="877" depart="1801.00" from="-663" to="1799" via="500"/>
    <trip id="888" depart="1828.00" from="-663" to="1799" via="500"/>
    <trip id="893" depart="1837.00" from="-663" to="1799" via="500"/>
    <trip id="899" depart="1852.00" from="-663" to="1799" via="500"/>
    <trip id="904" depart="1859.00" from="-663" to="1799" via="500"/>
    <trip id="905" depart="1860.00" from="-663" to="1799" via="500"/>
    <trip id="913" depart="1879.00" from="-663" to="1799" via="500"/>
    <trip id="932" depart="1911.00" from="-663" to="1799" via="500"/>
    <trip id="938" depart="1925.00" from="-663" to="1799" via="500"/>
    <trip id="946" depart="1937.00" from="-663" to="1799" via="500"/>
    <trip id="947" depart="1939.00" from="-663" to="1799" via="500"/>
    <trip id="955" depart="1964.00" from="-663" to="1799" via="500"/>
    <trip id="967" depart="1985.00" from="-663" to="1799" via="500"/>
    <trip id="970" depart="1991.00" from="-663" to="1799" via="500"/>
    <trip id="982" depart="2019.00" from="-663" to="1799" via="500"/>
    <trip id="984" depart="2022.00" from="-663" to="1799" via="500"/>
    <trip id="987" depart="2026.00" from="-663" to="1799" via="500"/>
    <trip id="992" depart="2039.00" from="-663" to="1799" via="500"/>
    <trip id="993" depart="2043.00" from="-663" to="1799" via="500"/>
    <trip id="1000" depart="2069.00" from="-663" to="1799" via="500"/>
    <trip id="1016" depart="2098.00" from="-663" to="1799" via="500"/>
    <trip id="1018" depart="2102.00" from="-663" to="1799" via="500"/>
    <trip id="1036" depart="2139.00" from="-663" to="1799" via="500"/>
    <trip id="1053" depart="2163.00" from="-663" to="1799" via="500"/>
    <trip id="1055" depart="2164.00" from="-663" to="1799" via="500"/>
    <trip id="1064" depart="2187.00" from="-663" to="1799" via="500"/>
    <trip id="1066" depart="2192.00" from="-663" to="1799" via="500"/>
    <trip id="1067" depart="2193.00" from="-663" to="1799" via="500"/>
    <trip id="1088" depart="2240.00" from="-663" to="1799" via="500"/>
    <trip id="1091" depart="2257.00" from="-663" to="1799" via="500"/>
    <trip id="1103" depart="2291.00" from="-663" to="1799" via="500"/>
    <trip id="1105" depart="2294.00" from="-663" to="1799" via="500"/>
    <trip id="1126" depart="2338.00" from="-663" to="1799" via="500"/>
    <trip id="1127" depart="2339.00" from="-663" to="1799" via="500"/>
    <trip id="1135" depart="2354.00" from="-663" to="1799" via="500"/>
    <trip id="1139" depart="2368.00" from="-663" to="1799" via="500"/>
    <trip id="1155" depart="2403.00" from="-663" to="1799" via="500"/>
    <trip id="1157" depart="2405.00" from="-663" to="1799" via="500"/>
    <trip id="1162" depart="2420.00" from="-663" to="1799" via="500"/>
    <trip id="1173" depart="2433.00" from="-663" to="1799" via="500"/>
    <trip id="1175" depart="2440.00" from="-663" to="1799" via="500"/>
    <trip id="1189" depart="2481.00" from="-663" to="1799" via="500"/>
    <trip id="1190" depart="2488.00" from="-663" to="1799" via="500"/>
    <trip id="1215" depart="2531.00" from="-663" to="1799" via="500"/>
    <trip id="1218" depart="2533.00" from="-663" to="1799" via="500"/>
    <trip id="1220" depart="2537.00" from="-663" to="1799" via="500"/>
    <trip id="1224" depart="2542.00" from="-663" to="1799" via="500"/>
    <trip id="1233" depart="2552.00" from="-663" to="1799" via="500"/>
    <trip id="1237" depart="2563.00" from="-663" to="1799" via="500"/>
    <trip id="1263" depart="2620.00" from="-663" to="1799" via="500"/>
    <trip id="1269" depart="2629.00" from="-663" to="1799" via="500"/>
    <trip id="1270" depart="2632.00" from="-663" to="1799" via="500"/>
    <trip id="1282" depart="2651.00" from="-663" to="1799" via="500"/>
    <trip id="1286" depart="2657.00" from="-663" to="1799" via="500"/>
    <trip id="1304" depart="2679.00" from="-663" to="1799" via="500"/>
    <trip id="1311" depart="2689.00" from="-663" to="1799" via="500"/>
    <trip id="1312" depart="2689.00" from="-663" to="1799" via="500"/>
    <trip id="1316" depart="2699.00" from="-663" to="1799" via="500"/>
    <trip id="1326" depart="2719.00" from="-663" to="1799" via="500"/>
    <trip id="1339" depart="2734.00" from="-663" to="1799" via="500"/>
    <trip id="1343" depart="2743.00" from="-663" to="1799" via="500"/>
    <trip id="1345" depart="2744.00" from="-663" to="1799" via="500"/>
    <trip id="1362" depart="2781.00" from="-663" to="1799" via="500"/>
    <trip id="1371" depart="2811.00" from="-663" to="1799" via="500"/>
    <trip id="1381" depart="2836.00" from="-663" to="1799" via="500"/>
    <trip id="1385" depart="2840.00" from="-663" to="1799" via="500"/>
    <trip id="1415" depart="2920.00" from="-663" to="1799" via="500"/>
    <trip id="1418" depart="2926.00" from="-663" to="1799" via="500"/>
    <trip id="1419" depart="2932.00" from="-663" to="1799" via="500"/>
    <trip id="1422" depart="2942.00" from="-663" to="1799" via="500"/>
    <trip id="1427" depart="2951.00" from="-663" to="1799" via="500"/>
    <trip id="1428" depart="2955.00" from="-663" to="1799" via="500"/>
    <trip id="1434" depart="2970.00" from="-663" to="1799" via="500"/>
    <trip id="1439" depart="2979.00" from="-663" to="1799" via="500"/>
    <trip id="1444" depart="3000.00" from="-663" to="1799" via="500"/>
    <trip id="1455" depart="3021.00" from="-663" to="1799" via="500"/>
    <trip id="1459" depart="3028.00" from="-663" to="1799" via="500"/>
    <trip id="1464" depart="3036.00" from="-663" to="1799" via="500"/>
    <trip id="1494" depart="3112.00" from="-663" to="1799" via="500"/>
    <trip id="1497" depart="3114.00" from="-663" to="1799" via="500"/>
    <trip id="1505" depart="3130.00" from="-663" to="1799" via="500"/>
    <trip id="1512" depart="3140.00" from="-663" to="1799" via="500"/>
    <trip id="1528" depart="3171.00" from="-663" to="1799" via="500"/>
    <trip id="1532" depart="3182.00" from="-663" to="1799" via="500"/>
    <trip id="1549" depart="3204.00" from="-663" to="1799" via="500"/>
    <trip id="1566" depart="3240.00" from="-663" to="1799" via="500"/>
    <trip id="1567" depart="3244.00" from="-663" to="1799" via="500"/>
    <trip id="1572" depart="3257.00" from="-663" to="1799" via="500"/>
    <trip id="1592" depart="3299.00" from="-663" to="1799" via="500"/>
    <trip id="1611" depart="3345.00" from="-663" to="1799" via="500"/>
    <trip id="1621" depart="3359.00" from="-663" to="1799" via="500"/>
    <trip id="1651" depart="3414.00" from="-663" to="1799" via="500"/>
    <trip id="1655" depart="3424.00" from="-663" to="1799" via="500"/>
    <trip id="1674" depart="3461.00" from="-663" to="1799" via="500"/>
    <trip id="1677" depart="3472.00" from="-663" to="1799" via="500"/>
    <trip id="1679" depart="3474.00" from="-663" to="1799" via="500"/>
    <trip id="1723" depart="3557.00" from="-663" to="1799" via="500"/>
    <trip id="1737" depart="3577.00" from="-663" to="1799" via="500"/>
    <trip id="1739" depart="3582.00" from="-663" to="1799" via="500"/>
    <trip id="1742" depart="3584.00" from="-663" to="1799" via="500"/>
    <trip id="1749" depart="3595.00" from="-663" to="1799" via="500"/>
</routes>
