<?xml version="1.0" encoding="UTF-8"?>

<!-- generated on 2025-03-19 08:53:36.507479 by randomTrips.py v1_22_0+0449-9311ec3459f
<configuration>
    <net-file value="random_subnetwork_4.net.xml"/>
    <output-trip-file value="random_subnetwork_4_light.trips.xml"/>
    <fringe-factor value="100"/>
    <min-distance value="600.0"/>
    <remove-loops value="True"/>
    <validate value="True"/>
    <period value="2.4"/>
    <random-depart value="True"/>
    <binomial value="10"/>
</configuration>
-->

<!-- generated on 2025-03-19 08:53:36 by Eclipse SUMO duarouter Version v1_22_0+0449-9311ec3459f
<duarouterConfiguration xmlns:xsi="http://www.w3.org/2001/XMLSchema-instance" xsi:noNamespaceSchemaLocation="http://sumo.dlr.de/xsd/duarouterConfiguration.xsd">

    <input>
        <net-file value="random_subnetwork_4.net.xml"/>
        <route-files value="random_subnetwork_4_light.trips.xml"/>
    </input>

    <output>
        <output-file value="random_subnetwork_4_light.trips.xml.tmp"/>
        <alternatives-output value="NUL"/>
        <write-trips value="true"/>
    </output>

    <processing>
        <remove-loops value="true"/>
    </processing>

    <time>
        <begin value="0.0"/>
        <end value="3600.0"/>
    </time>

    <report>
        <no-warnings value="true"/>
        <ignore-errors value="true"/>
        <no-step-log value="true"/>
    </report>

</duarouterConfiguration>
-->

<routes xmlns:xsi="http://www.w3.org/2001/XMLSchema-instance" xsi:noNamespaceSchemaLocation="http://sumo.dlr.de/xsd/routes_file.xsd">
    <trip id="0" depart="0.00" from="-1559" to="-833"/>
    <trip id="1" depart="0.00" from="833" to="1559"/>
    <trip id="2" depart="4.00" from="833" to="1559"/>
    <trip id="3" depart="7.00" from="-2042" to="-833"/>
    <trip id="4" depart="9.00" from="833" to="2042"/>
    <trip id="5" depart="23.00" from="833" to="1559"/>
    <trip id="6" depart="25.00" from="-1559" to="-833"/>
    <trip id="7" depart="28.00" from="833" to="2042"/>
    <trip id="8" depart="29.00" from="833" to="2042"/>
    <trip id="9" depart="31.00" from="-2042" to="-1085"/>
    <trip id="10" depart="33.00" from="-2042" to="-833"/>
    <trip id="11" depart="39.00" from="833" to="2042"/>
    <trip id="12" depart="39.00" from="-2042" to="-833"/>
    <trip id="13" depart="40.00" from="-2042" to="-833"/>
    <trip id="14" depart="41.00" from="833" to="2042"/>
    <trip id="15" depart="41.00" from="-1559" to="-833"/>
    <trip id="16" depart="42.00" from="833" to="1559"/>
    <trip id="17" depart="47.00" from="-1559" to="-833"/>
    <trip id="18" depart="49.00" from="-2042" to="-833"/>
    <trip id="19" depart="54.00" from="833" to="2042"/>
    <trip id="20" depart="56.00" from="833" to="2042"/>
    <trip id="21" depart="56.00" from="833" to="1559"/>
    <trip id="22" depart="66.00" from="833" to="2042"/>
    <trip id="23" depart="68.00" from="833" to="2042"/>
    <trip id="24" depart="71.00" from="833" to="2042"/>
    <trip id="25" depart="78.00" from="-1559" to="-833"/>
    <trip id="26" depart="81.00" from="833" to="2042"/>
    <trip id="27" depart="82.00" from="-1559" to="-833"/>
    <trip id="28" depart="83.00" from="-1559" to="-833"/>
    <trip id="29" depart="83.00" from="-1559" to="-833"/>
    <trip id="30" depart="92.00" from="833" to="2042"/>
    <trip id="31" depart="92.00" from="-2042" to="-833"/>
    <trip id="32" depart="95.00" from="-2042" to="-833"/>
    <trip id="33" depart="96.00" from="833" to="2042"/>
    <trip id="34" depart="97.00" from="833" to="1559"/>
    <trip id="35" depart="108.00" from="833" to="2042"/>
    <trip id="36" depart="112.00" from="833" to="2042"/>
    <trip id="37" depart="113.00" from="-1559" to="-833"/>
    <trip id="38" depart="115.00" from="833" to="1559"/>
    <trip id="39" depart="122.00" from="-1559" to="-833"/>
    <trip id="40" depart="126.00" from="-2042" to="-833"/>
    <trip id="41" depart="130.00" from="833" to="1559"/>
    <trip id="42" depart="134.00" from="-2042" to="-833"/>
    <trip id="43" depart="139.00" from="833" to="2042"/>
    <trip id="44" depart="140.00" from="833" to="2042"/>
    <trip id="45" depart="146.00" from="833" to="1559"/>
    <trip id="46" depart="148.00" from="-2042" to="-833"/>
    <trip id="47" depart="152.00" from="-1559" to="-833"/>
    <trip id="48" depart="158.00" from="833" to="2042"/>
    <trip id="49" depart="160.00" from="-2042" to="-833"/>
    <trip id="50" depart="160.00" from="-1559" to="-833"/>
    <trip id="51" depart="160.00" from="833" to="2042"/>
    <trip id="52" depart="165.00" from="833" to="2042"/>
    <trip id="53" depart="170.00" from="833" to="2042"/>
    <trip id="54" depart="171.00" from="-2042" to="-833"/>
    <trip id="55" depart="171.00" from="833" to="2042"/>
    <trip id="56" depart="173.00" from="-1559" to="-833"/>
    <trip id="57" depart="174.00" from="833" to="1559"/>
    <trip id="58" depart="177.00" from="833" to="1559"/>
    <trip id="59" depart="178.00" from="833" to="2042"/>
    <trip id="60" depart="187.00" from="-1559" to="-833"/>
    <trip id="61" depart="188.00" from="-2042" to="-833"/>
    <trip id="62" depart="193.00" from="-2042" to="-833"/>
    <trip id="63" depart="194.00" from="833" to="1559"/>
    <trip id="64" depart="199.00" from="833" to="1559"/>
    <trip id="65" depart="200.00" from="-2042" to="-833"/>
    <trip id="66" depart="202.00" from="833" to="2042"/>
    <trip id="67" depart="204.00" from="-1559" to="-833"/>
    <trip id="68" depart="208.00" from="-1559" to="-833"/>
    <trip id="69" depart="212.00" from="833" to="1559"/>
    <trip id="70" depart="217.00" from="833" to="2042"/>
    <trip id="71" depart="217.00" from="-2042" to="-833"/>
    <trip id="72" depart="222.00" from="833" to="1559"/>
    <trip id="73" depart="223.00" from="-1559" to="-833"/>
    <trip id="74" depart="224.00" from="833" to="2042"/>
    <trip id="75" depart="225.00" from="-2042" to="-833"/>
    <trip id="76" depart="225.00" from="-2042" to="-833"/>
    <trip id="77" depart="230.00" from="833" to="1559"/>
    <trip id="78" depart="231.00" from="833" to="2042"/>
    <trip id="79" depart="231.00" from="833" to="2042"/>
    <trip id="80" depart="234.00" from="-1559" to="-833"/>
    <trip id="81" depart="234.00" from="833" to="2042"/>
    <trip id="82" depart="237.00" from="-1559" to="-833"/>
    <trip id="83" depart="239.00" from="-2042" to="-833"/>
    <trip id="84" depart="245.00" from="833" to="1559"/>
    <trip id="85" depart="248.00" from="-2042" to="-833"/>
    <trip id="86" depart="248.00" from="833" to="2042"/>
    <trip id="87" depart="248.00" from="833" to="2042"/>
    <trip id="88" depart="248.00" from="-2042" to="-833"/>
    <trip id="89" depart="253.00" from="833" to="2042"/>
    <trip id="90" depart="258.00" from="833" to="1559"/>
    <trip id="91" depart="258.00" from="833" to="1559"/>
    <trip id="92" depart="259.00" from="833" to="1559"/>
    <trip id="93" depart="260.00" from="-2042" to="-833"/>
    <trip id="94" depart="261.00" from="833" to="1559"/>
    <trip id="95" depart="262.00" from="-1559" to="-833"/>
    <trip id="96" depart="263.00" from="-2042" to="-833"/>
    <trip id="97" depart="265.00" from="-2042" to="-833"/>
    <trip id="98" depart="268.00" from="-2042" to="-833"/>
    <trip id="99" depart="278.00" from="-2042" to="-833"/>
    <trip id="100" depart="279.00" from="833" to="2042"/>
    <trip id="101" depart="284.00" from="833" to="2042"/>
    <trip id="102" depart="286.00" from="833" to="2042"/>
    <trip id="103" depart="288.00" from="-2042" to="-833"/>
    <trip id="104" depart="291.00" from="833" to="1559"/>
    <trip id="105" depart="295.00" from="-1559" to="-833"/>
    <trip id="106" depart="297.00" from="-2042" to="-833"/>
    <trip id="107" depart="305.00" from="833" to="2042"/>
    <trip id="108" depart="308.00" from="833" to="2042"/>
    <trip id="109" depart="311.00" from="833" to="1559"/>
    <trip id="110" depart="313.00" from="-1559" to="-833"/>
    <trip id="111" depart="314.00" from="833" to="2042"/>
    <trip id="112" depart="314.00" from="-1559" to="-833"/>
    <trip id="113" depart="314.00" from="833" to="1559"/>
    <trip id="114" depart="318.00" from="-1559" to="-833"/>
    <trip id="115" depart="319.00" from="833" to="1559"/>
    <trip id="116" depart="324.00" from="833" to="1559"/>
    <trip id="117" depart="327.00" from="833" to="1559"/>
    <trip id="118" depart="330.00" from="-1559" to="-833"/>
    <trip id="119" depart="330.00" from="833" to="1559"/>
    <trip id="120" depart="331.00" from="833" to="1559"/>
    <trip id="121" depart="331.00" from="833" to="2042"/>
    <trip id="122" depart="332.00" from="833" to="2042"/>
    <trip id="123" depart="332.00" from="-1559" to="-833"/>
    <trip id="124" depart="335.00" from="-1559" to="-833"/>
    <trip id="125" depart="338.00" from="-2042" to="-833"/>
    <trip id="126" depart="339.00" from="-1559" to="-833"/>
    <trip id="127" depart="343.00" from="-1559" to="-833"/>
    <trip id="128" depart="348.00" from="833" to="2042"/>
    <trip id="129" depart="353.00" from="-1559" to="-833"/>
    <trip id="130" depart="356.00" from="833" to="1559"/>
    <trip id="131" depart="356.00" from="-2042" to="-833"/>
    <trip id="132" depart="360.00" from="833" to="2042"/>
    <trip id="133" depart="361.00" from="-2042" to="-833"/>
    <trip id="134" depart="361.00" from="-2042" to="-833"/>
    <trip id="135" depart="361.00" from="-1559" to="-833"/>
    <trip id="136" depart="362.00" from="-2042" to="-833"/>
    <trip id="137" depart="362.00" from="833" to="2042"/>
    <trip id="138" depart="362.00" from="-2042" to="-833"/>
    <trip id="139" depart="369.00" from="833" to="2042"/>
    <trip id="140" depart="378.00" from="-2042" to="-833"/>
    <trip id="141" depart="378.00" from="833" to="1559"/>
    <trip id="142" depart="384.00" from="833" to="2042"/>
    <trip id="143" depart="384.00" from="833" to="1559"/>
    <trip id="144" depart="384.00" from="-1559" to="-833"/>
    <trip id="145" depart="387.00" from="833" to="2042"/>
    <trip id="146" depart="387.00" from="833" to="2042"/>
    <trip id="147" depart="388.00" from="-2042" to="-833"/>
    <trip id="148" depart="390.00" from="-1559" to="-833"/>
    <trip id="149" depart="394.00" from="-1559" to="-833"/>
    <trip id="150" depart="399.00" from="-1559" to="-833"/>
    <trip id="151" depart="400.00" from="833" to="1559"/>
    <trip id="152" depart="403.00" from="-2042" to="-833"/>
    <trip id="153" depart="406.00" from="-1559" to="-833"/>
    <trip id="154" depart="407.00" from="-1559" to="-833"/>
    <trip id="155" depart="411.00" from="833" to="1559"/>
    <trip id="156" depart="411.00" from="833" to="1559"/>
    <trip id="157" depart="413.00" from="-1559" to="-833"/>
    <trip id="158" depart="413.00" from="-2042" to="-833"/>
    <trip id="159" depart="420.00" from="833" to="2042"/>
    <trip id="160" depart="421.00" from="-2042" to="-833"/>
    <trip id="161" depart="422.00" from="-1559" to="-833"/>
    <trip id="162" depart="423.00" from="-1559" to="-833"/>
    <trip id="163" depart="427.00" from="-1559" to="-833"/>
    <trip id="164" depart="428.00" from="833" to="1559"/>
    <trip id="165" depart="428.00" from="-1559" to="-833"/>
    <trip id="166" depart="437.00" from="833" to="1559"/>
    <trip id="167" depart="437.00" from="-2042" to="-833"/>
    <trip id="168" depart="438.00" from="833" to="1559"/>
    <trip id="169" depart="439.00" from="833" to="2042"/>
    <trip id="170" depart="449.00" from="-2042" to="-833"/>
    <trip id="171" depart="450.00" from="833" to="2042"/>
    <trip id="172" depart="452.00" from="-2042" to="-833"/>
    <trip id="173" depart="458.00" from="833" to="2042"/>
    <trip id="174" depart="463.00" from="-1559" to="-833"/>
    <trip id="175" depart="465.00" from="-1559" to="-833"/>
    <trip id="176" depart="469.00" from="-1559" to="-833"/>
    <trip id="177" depart="471.00" from="-1559" to="-833"/>
    <trip id="178" depart="478.00" from="833" to="1559"/>
    <trip id="179" depart="480.00" from="833" to="1559"/>
    <trip id="180" depart="485.00" from="-2042" to="-833"/>
    <trip id="181" depart="488.00" from="-1559" to="-833"/>
    <trip id="182" depart="489.00" from="833" to="1559"/>
    <trip id="183" depart="493.00" from="833" to="1559"/>
    <trip id="184" depart="495.00" from="833" to="2042"/>
    <trip id="185" depart="497.00" from="-1559" to="-833"/>
    <trip id="186" depart="504.00" from="-1559" to="-833"/>
    <trip id="187" depart="509.00" from="833" to="2042"/>
    <trip id="188" depart="511.00" from="833" to="2042"/>
    <trip id="189" depart="511.00" from="833" to="1559"/>
    <trip id="190" depart="516.00" from="833" to="1559"/>
    <trip id="191" depart="520.00" from="-1559" to="-833"/>
    <trip id="192" depart="521.00" from="-1559" to="-833"/>
    <trip id="193" depart="523.00" from="-1559" to="-833"/>
    <trip id="194" depart="524.00" from="833" to="2042"/>
    <trip id="195" depart="526.00" from="833" to="2042"/>
    <trip id="196" depart="527.00" from="833" to="1559"/>
    <trip id="197" depart="528.00" from="-2042" to="-833"/>
    <trip id="198" depart="534.00" from="-1559" to="-833"/>
    <trip id="199" depart="536.00" from="833" to="2042"/>
    <trip id="200" depart="537.00" from="-2042" to="-833"/>
    <trip id="201" depart="538.00" from="-1559" to="-833"/>
    <trip id="202" depart="544.00" from="833" to="1559"/>
    <trip id="203" depart="550.00" from="-1559" to="-833"/>
    <trip id="204" depart="551.00" from="-1559" to="-833"/>
    <trip id="205" depart="554.00" from="833" to="1559"/>
    <trip id="206" depart="557.00" from="-2042" to="-833"/>
    <trip id="207" depart="557.00" from="833" to="2042"/>
    <trip id="208" depart="557.00" from="833" to="1559"/>
    <trip id="209" depart="563.00" from="-1559" to="-833"/>
    <trip id="210" depart="563.00" from="-1559" to="-833"/>
    <trip id="211" depart="565.00" from="-1559" to="-833"/>
    <trip id="212" depart="567.00" from="833" to="1559"/>
    <trip id="213" depart="570.00" from="833" to="2042"/>
    <trip id="214" depart="572.00" from="-1559" to="-833"/>
    <trip id="215" depart="573.00" from="-1559" to="-833"/>
    <trip id="216" depart="574.00" from="833" to="2042"/>
    <trip id="217" depart="574.00" from="833" to="1559"/>
    <trip id="218" depart="579.00" from="-1559" to="-833"/>
    <trip id="219" depart="582.00" from="-1559" to="-833"/>
    <trip id="220" depart="583.00" from="833" to="1559"/>
    <trip id="221" depart="586.00" from="833" to="2042"/>
    <trip id="222" depart="587.00" from="833" to="2042"/>
    <trip id="223" depart="589.00" from="-1559" to="-833"/>
    <trip id="224" depart="592.00" from="-1559" to="-833"/>
    <trip id="225" depart="598.00" from="-2042" to="-833"/>
    <trip id="226" depart="598.00" from="-2042" to="-833"/>
    <trip id="227" depart="598.00" from="-2042" to="-833"/>
    <trip id="228" depart="599.00" from="833" to="2042"/>
    <trip id="229" depart="607.00" from="-2042" to="-833"/>
    <trip id="230" depart="608.00" from="-1559" to="-833"/>
    <trip id="231" depart="611.00" from="833" to="2042"/>
    <trip id="232" depart="612.00" from="833" to="2042"/>
    <trip id="233" depart="613.00" from="833" to="1559"/>
    <trip id="234" depart="614.00" from="833" to="2042"/>
    <trip id="235" depart="614.00" from="833" to="1559"/>
    <trip id="236" depart="617.00" from="-2042" to="-833"/>
    <trip id="237" depart="620.00" from="833" to="2042"/>
    <trip id="238" depart="624.00" from="833" to="1559"/>
    <trip id="239" depart="631.00" from="833" to="2042"/>
    <trip id="240" depart="639.00" from="-2042" to="-833"/>
    <trip id="241" depart="639.00" from="833" to="1559"/>
    <trip id="242" depart="641.00" from="833" to="1559"/>
    <trip id="243" depart="645.00" from="-2042" to="-833"/>
    <trip id="244" depart="646.00" from="833" to="1559"/>
    <trip id="245" depart="648.00" from="-2042" to="-833"/>
    <trip id="246" depart="657.00" from="-2042" to="-833"/>
    <trip id="247" depart="659.00" from="833" to="1559"/>
    <trip id="248" depart="659.00" from="-1559" to="-833"/>
    <trip id="249" depart="661.00" from="833" to="2042"/>
    <trip id="250" depart="663.00" from="-1559" to="-833"/>
    <trip id="251" depart="668.00" from="-1559" to="-833"/>
    <trip id="252" depart="671.00" from="833" to="1559"/>
    <trip id="253" depart="671.00" from="833" to="2042"/>
    <trip id="254" depart="674.00" from="-1559" to="-833"/>
    <trip id="255" depart="676.00" from="833" to="2042"/>
    <trip id="256" depart="676.00" from="833" to="2042"/>
    <trip id="257" depart="679.00" from="-2042" to="-833"/>
    <trip id="258" depart="682.00" from="833" to="1559"/>
    <trip id="259" depart="685.00" from="833" to="2042"/>
    <trip id="260" depart="686.00" from="833" to="1559"/>
    <trip id="261" depart="687.00" from="-2042" to="-833"/>
    <trip id="262" depart="690.00" from="833" to="1559"/>
    <trip id="263" depart="691.00" from="-2042" to="-833"/>
    <trip id="264" depart="697.00" from="833" to="1559"/>
    <trip id="265" depart="699.00" from="833" to="1559"/>
    <trip id="266" depart="701.00" from="833" to="2042"/>
    <trip id="267" depart="704.00" from="833" to="2042"/>
    <trip id="268" depart="705.00" from="-1559" to="-833"/>
    <trip id="269" depart="708.00" from="833" to="2042"/>
    <trip id="270" depart="708.00" from="833" to="1559"/>
    <trip id="271" depart="709.00" from="833" to="2042"/>
    <trip id="272" depart="712.00" from="-2042" to="-833"/>
    <trip id="273" depart="715.00" from="833" to="2042"/>
    <trip id="274" depart="715.00" from="-2042" to="-833"/>
    <trip id="275" depart="716.00" from="-1559" to="-833"/>
    <trip id="276" depart="720.00" from="833" to="1559"/>
    <trip id="277" depart="721.00" from="833" to="2042"/>
    <trip id="278" depart="725.00" from="-2042" to="-833"/>
    <trip id="279" depart="726.00" from="-1559" to="-833"/>
    <trip id="280" depart="732.00" from="-1559" to="-833"/>
    <trip id="281" depart="734.00" from="-2042" to="-833"/>
    <trip id="282" depart="736.00" from="-1559" to="-833"/>
    <trip id="283" depart="739.00" from="-1559" to="-833"/>
    <trip id="284" depart="740.00" from="833" to="2042"/>
    <trip id="285" depart="740.00" from="833" to="2042"/>
    <trip id="286" depart="743.00" from="833" to="1559"/>
    <trip id="287" depart="744.00" from="-2042" to="-833"/>
    <trip id="288" depart="745.00" from="-1559" to="-833"/>
    <trip id="289" depart="749.00" from="833" to="1559"/>
    <trip id="290" depart="749.00" from="833" to="2042"/>
    <trip id="291" depart="752.00" from="-2042" to="-833"/>
    <trip id="292" depart="755.00" from="-2042" to="-833"/>
    <trip id="293" depart="768.00" from="-1559" to="-833"/>
    <trip id="294" depart="769.00" from="833" to="2042"/>
    <trip id="295" depart="770.00" from="833" to="2042"/>
    <trip id="296" depart="770.00" from="833" to="1559"/>
    <trip id="297" depart="771.00" from="-1559" to="-833"/>
    <trip id="298" depart="776.00" from="-1559" to="-833"/>
    <trip id="299" depart="776.00" from="833" to="2042"/>
    <trip id="300" depart="779.00" from="833" to="2042"/>
    <trip id="301" depart="783.00" from="-2042" to="-833"/>
    <trip id="302" depart="786.00" from="833" to="1559"/>
    <trip id="303" depart="789.00" from="-2042" to="-833"/>
    <trip id="304" depart="789.00" from="833" to="2042"/>
    <trip id="305" depart="796.00" from="833" to="2042"/>
    <trip id="306" depart="797.00" from="833" to="1559"/>
    <trip id="307" depart="797.00" from="-2042" to="-833"/>
    <trip id="308" depart="799.00" from="-1559" to="-833"/>
    <trip id="309" depart="805.00" from="833" to="2042"/>
    <trip id="310" depart="806.00" from="833" to="1559"/>
    <trip id="311" depart="807.00" from="-2042" to="-833"/>
    <trip id="312" depart="807.00" from="-1559" to="-833"/>
    <trip id="313" depart="810.00" from="833" to="1559"/>
    <trip id="314" depart="812.00" from="833" to="1559"/>
    <trip id="315" depart="819.00" from="833" to="2042"/>
    <trip id="316" depart="819.00" from="-2042" to="-833"/>
    <trip id="317" depart="821.00" from="-1559" to="-833"/>
    <trip id="318" depart="822.00" from="833" to="2042"/>
    <trip id="319" depart="824.00" from="833" to="2042"/>
    <trip id="320" depart="827.00" from="833" to="1559"/>
    <trip id="321" depart="829.00" from="-1559" to="-833"/>
    <trip id="322" depart="829.00" from="-2042" to="-833"/>
    <trip id="323" depart="830.00" from="833" to="1559"/>
    <trip id="324" depart="832.00" from="833" to="2042"/>
    <trip id="325" depart="833.00" from="-1559" to="-833"/>
    <trip id="326" depart="838.00" from="833" to="1559"/>
    <trip id="327" depart="839.00" from="833" to="1559"/>
    <trip id="328" depart="842.00" from="-1559" to="-833"/>
    <trip id="329" depart="845.00" from="833" to="1559"/>
    <trip id="330" depart="847.00" from="833" to="1559"/>
    <trip id="331" depart="848.00" from="-2042" to="-833"/>
    <trip id="332" depart="856.00" from="833" to="2042"/>
    <trip id="333" depart="857.00" from="833" to="2042"/>
    <trip id="334" depart="862.00" from="833" to="1559"/>
    <trip id="335" depart="863.00" from="833" to="1559"/>
    <trip id="336" depart="867.00" from="-1559" to="-833"/>
    <trip id="337" depart="870.00" from="833" to="1559"/>
    <trip id="338" depart="876.00" from="-2042" to="-833"/>
    <trip id="339" depart="881.00" from="833" to="1559"/>
    <trip id="340" depart="882.00" from="833" to="2042"/>
    <trip id="341" depart="885.00" from="-2042" to="-833"/>
    <trip id="342" depart="885.00" from="-1559" to="-833"/>
    <trip id="343" depart="890.00" from="833" to="1559"/>
    <trip id="344" depart="895.00" from="833" to="2042"/>
    <trip id="345" depart="896.00" from="1085" to="2042"/>
    <trip id="346" depart="898.00" from="833" to="1559"/>
    <trip id="347" depart="899.00" from="-2042" to="-833"/>
    <trip id="348" depart="902.00" from="-2042" to="-833"/>
    <trip id="349" depart="905.00" from="833" to="2042"/>
    <trip id="350" depart="907.00" from="833" to="1559"/>
    <trip id="351" depart="914.00" from="-2042" to="-833"/>
    <trip id="352" depart="922.00" from="833" to="2042"/>
    <trip id="353" depart="922.00" from="-1559" to="-833"/>
    <trip id="354" depart="930.00" from="-2042" to="-833"/>
    <trip id="355" depart="933.00" from="833" to="2042"/>
    <trip id="356" depart="935.00" from="833" to="2042"/>
    <trip id="357" depart="940.00" from="833" to="2042"/>
    <trip id="358" depart="940.00" from="833" to="1559"/>
    <trip id="359" depart="943.00" from="-1559" to="-833"/>
    <trip id="360" depart="950.00" from="833" to="2042"/>
    <trip id="361" depart="957.00" from="-2042" to="-833"/>
    <trip id="362" depart="964.00" from="833" to="1559"/>
    <trip id="363" depart="967.00" from="833" to="2042"/>
    <trip id="364" depart="969.00" from="833" to="1559"/>
    <trip id="365" depart="970.00" from="1085" to="2042"/>
    <trip id="366" depart="971.00" from="833" to="2042"/>
    <trip id="367" depart="974.00" from="833" to="1559"/>
    <trip id="368" depart="975.00" from="-1559" to="-833"/>
    <trip id="369" depart="976.00" from="-1559" to="-833"/>
    <trip id="370" depart="979.00" from="-2042" to="-833"/>
    <trip id="371" depart="982.00" from="-1559" to="-833"/>
    <trip id="372" depart="983.00" from="833" to="2042"/>
    <trip id="373" depart="983.00" from="833" to="1559"/>
    <trip id="374" depart="986.00" from="-2042" to="-833"/>
    <trip id="375" depart="990.00" from="-1559" to="-833"/>
    <trip id="376" depart="991.00" from="-1559" to="-833"/>
    <trip id="377" depart="995.00" from="833" to="1559"/>
    <trip id="378" depart="995.00" from="-2042" to="-833"/>
    <trip id="379" depart="996.00" from="-1559" to="-833"/>
    <trip id="380" depart="997.00" from="-1559" to="-833"/>
    <trip id="381" depart="1001.00" from="-1559" to="-833"/>
    <trip id="382" depart="1001.00" from="-1559" to="-833"/>
    <trip id="383" depart="1003.00" from="-2042" to="-833"/>
    <trip id="384" depart="1003.00" from="-1559" to="-833"/>
    <trip id="385" depart="1013.00" from="-1559" to="-833"/>
    <trip id="386" depart="1014.00" from="-1559" to="-833"/>
    <trip id="387" depart="1016.00" from="833" to="1559"/>
    <trip id="388" depart="1016.00" from="833" to="1559"/>
    <trip id="389" depart="1017.00" from="833" to="2042"/>
    <trip id="390" depart="1019.00" from="833" to="2042"/>
    <trip id="391" depart="1021.00" from="-2042" to="-833"/>
    <trip id="392" depart="1024.00" from="-2042" to="-833"/>
    <trip id="393" depart="1027.00" from="833" to="2042"/>
    <trip id="394" depart="1028.00" from="-1559" to="-833"/>
    <trip id="395" depart="1036.00" from="833" to="1559"/>
    <trip id="396" depart="1038.00" from="833" to="2042"/>
    <trip id="397" depart="1044.00" from="833" to="1559"/>
    <trip id="398" depart="1050.00" from="833" to="2042"/>
    <trip id="399" depart="1050.00" from="-2042" to="-833"/>
    <trip id="400" depart="1052.00" from="833" to="1559"/>
    <trip id="401" depart="1054.00" from="-1559" to="-833"/>
    <trip id="402" depart="1057.00" from="833" to="1559"/>
    <trip id="403" depart="1058.00" from="-2042" to="-833"/>
    <trip id="404" depart="1061.00" from="833" to="2042"/>
    <trip id="405" depart="1067.00" from="833" to="1559"/>
    <trip id="406" depart="1067.00" from="-1559" to="-833"/>
    <trip id="407" depart="1068.00" from="833" to="1559"/>
    <trip id="408" depart="1068.00" from="-1559" to="-833"/>
    <trip id="409" depart="1070.00" from="-1559" to="-833"/>
    <trip id="410" depart="1072.00" from="-1559" to="-833"/>
    <trip id="411" depart="1072.00" from="833" to="1559"/>
    <trip id="412" depart="1073.00" from="833" to="2042"/>
    <trip id="413" depart="1075.00" from="-2042" to="-833"/>
    <trip id="414" depart="1078.00" from="-2042" to="-833"/>
    <trip id="415" depart="1081.00" from="-1559" to="-833"/>
    <trip id="416" depart="1082.00" from="833" to="2042"/>
    <trip id="417" depart="1088.00" from="833" to="2042"/>
    <trip id="418" depart="1089.00" from="833" to="1559"/>
    <trip id="419" depart="1091.00" from="833" to="1559"/>
    <trip id="420" depart="1094.00" from="833" to="1559"/>
    <trip id="421" depart="1096.00" from="833" to="2042"/>
    <trip id="422" depart="1099.00" from="-1559" to="-833"/>
    <trip id="423" depart="1099.00" from="-1559" to="-833"/>
    <trip id="424" depart="1107.00" from="833" to="1559"/>
    <trip id="425" depart="1107.00" from="-1559" to="-833"/>
    <trip id="426" depart="1114.00" from="-2042" to="-833"/>
    <trip id="427" depart="1115.00" from="833" to="2042"/>
    <trip id="428" depart="1116.00" from="-1559" to="-833"/>
    <trip id="429" depart="1124.00" from="-1559" to="-833"/>
    <trip id="430" depart="1124.00" from="-1559" to="-833"/>
    <trip id="431" depart="1127.00" from="-2042" to="-833"/>
    <trip id="432" depart="1129.00" from="833" to="2042"/>
    <trip id="433" depart="1130.00" from="833" to="1559"/>
    <trip id="434" depart="1135.00" from="833" to="2042"/>
    <trip id="435" depart="1136.00" from="-2042" to="-833"/>
    <trip id="436" depart="1141.00" from="-1559" to="-833"/>
    <trip id="437" depart="1142.00" from="-2042" to="-833"/>
    <trip id="438" depart="1147.00" from="-1559" to="-833"/>
    <trip id="439" depart="1148.00" from="-1559" to="-833"/>
    <trip id="440" depart="1151.00" from="833" to="2042"/>
    <trip id="441" depart="1155.00" from="-2042" to="-833"/>
    <trip id="442" depart="1157.00" from="833" to="1559"/>
    <trip id="443" depart="1157.00" from="833" to="2042"/>
    <trip id="444" depart="1161.00" from="-1559" to="-833"/>
    <trip id="445" depart="1161.00" from="833" to="1559"/>
    <trip id="446" depart="1163.00" from="-2042" to="-833"/>
    <trip id="447" depart="1164.00" from="-1559" to="-833"/>
    <trip id="448" depart="1172.00" from="833" to="1559"/>
    <trip id="449" depart="1173.00" from="-2042" to="-833"/>
    <trip id="450" depart="1173.00" from="-2042" to="-833"/>
    <trip id="451" depart="1174.00" from="-2042" to="-833"/>
    <trip id="452" depart="1177.00" from="833" to="1559"/>
    <trip id="453" depart="1178.00" from="-2042" to="-833"/>
    <trip id="454" depart="1183.00" from="833" to="2042"/>
    <trip id="455" depart="1183.00" from="-1559" to="-833"/>
    <trip id="456" depart="1185.00" from="833" to="2042"/>
    <trip id="457" depart="1186.00" from="-2042" to="-833"/>
    <trip id="458" depart="1192.00" from="-2042" to="-833"/>
    <trip id="459" depart="1194.00" from="-2042" to="-833"/>
    <trip id="460" depart="1196.00" from="-1559" to="-833"/>
    <trip id="461" depart="1196.00" from="-2042" to="-833"/>
    <trip id="462" depart="1211.00" from="-2042" to="-833"/>
    <trip id="463" depart="1212.00" from="-1559" to="-833"/>
    <trip id="464" depart="1214.00" from="833" to="2042"/>
    <trip id="465" depart="1216.00" from="-2042" to="-833"/>
    <trip id="466" depart="1216.00" from="-1559" to="-833"/>
    <trip id="467" depart="1216.00" from="833" to="2042"/>
    <trip id="468" depart="1218.00" from="-1559" to="-833"/>
    <trip id="469" depart="1222.00" from="-1559" to="-833"/>
    <trip id="470" depart="1223.00" from="-2042" to="-833"/>
    <trip id="471" depart="1224.00" from="-1559" to="-833"/>
    <trip id="472" depart="1225.00" from="833" to="1559"/>
    <trip id="473" depart="1227.00" from="833" to="2042"/>
    <trip id="474" depart="1227.00" from="833" to="2042"/>
    <trip id="475" depart="1230.00" from="-2042" to="-833"/>
    <trip id="476" depart="1231.00" from="833" to="2042"/>
    <trip id="477" depart="1234.00" from="833" to="1559"/>
    <trip id="478" depart="1240.00" from="-1559" to="-833"/>
    <trip id="479" depart="1246.00" from="-1559" to="-833"/>
    <trip id="480" depart="1246.00" from="833" to="1559"/>
    <trip id="481" depart="1255.00" from="833" to="1559"/>
    <trip id="482" depart="1257.00" from="833" to="2042"/>