<?xml version="1.0" encoding="UTF-8"?>

<!-- generated on 2025-03-09 19:55:38.441222 by randomTrips.py v1_19_0+1770-8bb5c24c187
<configuration>
    <net-file value="random_subnetwork_1.net.xml"/>
    <output-trip-file value="random_subnetwork_1_light.trips.xml"/>
    <fringe-factor value="100"/>
    <min-distance value="800.0"/>
    <remove-loops value="True"/>
    <validate value="True"/>
    <period value="4.3851"/>
    <random-depart value="True"/>
    <binomial value="4"/>
</configuration>
-->

<!-- generated on 2025-03-09 19:55:38 by Eclipse SUMO duarouter Version v1_19_0+1770-8bb5c24c187
<configuration xmlns:xsi="http://www.w3.org/2001/XMLSchema-instance" xsi:noNamespaceSchemaLocation="http://sumo.dlr.de/xsd/duarouterConfiguration.xsd">

    <input>
        <net-file value="random_subnetwork_1.net.xml"/>
        <route-files value="random_subnetwork_1_light.trips.xml"/>
    </input>

    <output>
        <output-file value="random_subnetwork_1_light.trips.xml.tmp"/>
        <alternatives-output value="NUL"/>
        <write-trips value="true"/>
    </output>

    <processing>
        <remove-loops value="true"/>
    </processing>

    <time>
        <begin value="0.0"/>
        <end value="3600.0"/>
    </time>

    <report>
        <no-warnings value="true"/>
        <ignore-errors value="true"/>
        <no-step-log value="true"/>
    </report>

</duarouterConfiguration>
-->

<routes xmlns:xsi="http://www.w3.org/2001/XMLSchema-instance" xsi:noNamespaceSchemaLocation="http://sumo.dlr.de/xsd/routes_file.xsd">
    <trip id="0" depart="1.00" from="-1912" to="1072"/>
    <trip id="1" depart="9.00" from="-462" to="315"/>
    <trip id="2" depart="11.00" from="-1912" to="-270"/>
    <trip id="3" depart="26.00" from="-1912" to="1916"/>
    <trip id="4" depart="27.00" from="-315" to="462"/>
    <trip id="5" depart="33.00" from="270" to="1916"/>
    <trip id="6" depart="36.00" from="-1916" to="1912"/>
    <trip id="7" depart="38.00" from="-1072" to="1912"/>
    <trip id="8" depart="43.00" from="-1912" to="462"/>
    <trip id="9" depart="47.00" from="-462" to="1916"/>
    <trip id="10" depart="54.00" from="-462" to="1912"/>
    <trip id="11" depart="57.00" from="270" to="1916"/>
    <trip id="12" depart="61.00" from="-1912" to="1072"/>
    <trip id="13" depart="81.00" from="-1916" to="1907"/>
    <trip id="14" depart="88.00" from="-462" to="315"/>
    <trip id="15" depart="93.00" from="-508" to="1072"/>
    <trip id="16" depart="94.00" from="-508" to="1072"/>
    <trip id="17" depart="95.00" from="-508" to="1072"/>
    <trip id="18" depart="104.00" from="-462" to="-270"/>
    <trip id="19" depart="107.00" from="-1912" to="1072"/>
    <trip id="20" depart="108.00" from="-508" to="1072"/>
    <trip id="21" depart="108.00" from="270" to="462"/>
    <trip id="22" depart="109.00" from="-1912" to="462"/>
    <trip id="23" depart="129.00" from="-508" to="1916"/>
    <trip id="24" depart="130.00" from="-315" to="1072"/>
    <trip id="25" depart="132.00" from="-462" to="305"/>
    <trip id="26" depart="162.00" from="-1912" to="1072"/>
    <trip id="27" depart="169.00" from="-1916" to="508"/>
    <trip id="28" depart="172.00" from="270" to="1916"/>
    <trip id="29" depart="175.00" from="-462" to="315"/>
    <trip id="30" depart="183.00" from="-1072" to="1907"/>
    <trip id="31" depart="185.00" from="-462" to="-270"/>
    <trip id="32" depart="191.00" from="-315" to="1072"/>
    <trip id="33" depart="197.00" from="-1916" to="-270"/>
    <trip id="34" depart="197.00" from="-1907" to="1072"/>
    <trip id="35" depart="199.00" from="-1916" to="462"/>
    <trip id="36" depart="205.00" from="-1072" to="1907"/>
    <trip id="37" depart="215.00" from="-1912" to="1916"/>
    <trip id="38" depart="225.00" from="270" to="1916"/>
    <trip id="39" depart="233.00" from="-462" to="1912"/>
    <trip id="40" depart="235.00" from="-1916" to="508"/>
    <trip id="41" depart="236.00" from="-1916" to="-470"/>
    <trip id="42" depart="237.00" from="270" to="1912"/>
    <trip id="43" depart="238.00" from="-462" to="1912"/>
    <trip id="44" depart="243.00" from="-1072" to="1907"/>
    <trip id="45" depart="252.00" from="-1907" to="1916"/>
    <trip id="46" depart="254.00" from="-1912" to="462"/>
    <trip id="47" depart="254.00" from="-462" to="-270"/>
    <trip id="48" depart="260.00" from="-1916" to="-307"/>
    <trip id="49" depart="261.00" from="-1072" to="508"/>
    <trip id="50" depart="270.00" from="270" to="462"/>
    <trip id="51" depart="270.00" from="-1916" to="508"/>
    <trip id="52" depart="275.00" from="-1916" to="315"/>
    <trip id="53" depart="290.00" from="-462" to="-270"/>
    <trip id="54" depart="295.00" from="-1072" to="508"/>
    <trip id="55" depart="296.00" from="-1912" to="462"/>
    <trip id="56" depart="306.00" from="-1912" to="462"/>
    <trip id="57" depart="307.00" from="-1912" to="462"/>
    <trip id="58" depart="311.00" from="-462" to="1912"/>
    <trip id="59" depart="314.00" from="-1072" to="1907"/>
    <trip id="60" depart="324.00" from="-315" to="1072"/>
    <trip id="61" depart="337.00" from="-1912" to="1916"/>
    <trip id="62" depart="342.00" from="-462" to="1912"/>
    <trip id="63" depart="345.00" from="-1072" to="315"/>
    <trip id="64" depart="347.00" from="-462" to="1916"/>
    <trip id="65" depart="351.00" from="-315" to="1916"/>
    <trip id="66" depart="355.00" from="-1907" to="1072"/>
    <trip id="67" depart="357.00" from="-315" to="1916"/>
    <trip id="68" depart="365.00" from="-315" to="1916"/>
    <trip id="69" depart="365.00" from="-462" to="315"/>
    <trip id="70" depart="371.00" from="-462" to="315"/>
    <trip id="71" depart="375.00" from="270" to="1912"/>
    <trip id="72" depart="377.00" from="-1912" to="462"/>
    <trip id="73" depart="381.00" from="-508" to="1072"/>
    <trip id="74" depart="387.00" from="-1907" to="1916"/>
    <trip id="75" depart="392.00" from="-1916" to="315"/>
    <trip id="76" depart="400.00" from="-1072" to="508"/>
    <trip id="77" depart="400.00" from="-1916" to="1907"/>
    <trip id="78" depart="400.00" from="-1916" to="1912"/>
    <trip id="79" depart="403.00" from="-1916" to="462"/>
    <trip id="80" depart="407.00" from="-1916" to="-270"/>
    <trip id="81" depart="411.00" from="-462" to="1916"/>
    <trip id="82" depart="420.00" from="-1912" to="1916"/>
    <trip id="83" depart="424.00" from="-1912" to="-270"/>
    <trip id="84" depart="430.00" from="-462" to="-270"/>
    <trip id="85" depart="430.00" from="-1907" to="1916"/>
    <trip id="86" depart="431.00" from="-1912" to="462"/>
    <trip id="87" depart="432.00" from="-1916" to="1907"/>
    <trip id="88" depart="432.00" from="-1912" to="462"/>
    <trip id="89" depart="433.00" from="-1907" to="1916"/>
    <trip id="90" depart="441.00" from="-1439" to="1912"/>
    <trip id="91" depart="450.00" from="-1916" to="-270"/>
    <trip id="92" depart="457.00" from="-1916" to="1907"/>
    <trip id="93" depart="457.00" from="-1072" to="315"/>
    <trip id="94" depart="464.00" from="-1916" to="-270"/>
    <trip id="95" depart="466.00" from="-462" to="1916"/>
    <trip id="96" depart="476.00" from="-1907" to="1072"/>
    <trip id="97" depart="478.00" from="270" to="1912"/>
    <trip id="98" depart="481.00" from="-462" to="1912"/>
    <trip id="99" depart="488.00" from="-315" to="1072"/>
    <trip id="100" depart="492.00" from="270" to="1912"/>
    <trip id="101" depart="495.00" from="-1912" to="1072"/>
    <trip id="102" depart="502.00" from="270" to="462"/>
    <trip id="103" depart="511.00" from="-1916" to="-270"/>
    <trip id="104" depart="514.00" from="-1912" to="462"/>
    <trip id="105" depart="522.00" from="-1916" to="462"/>
    <trip id="106" depart="523.00" from="-462" to="-270"/>
    <trip id="107" depart="537.00" from="-1916" to="1907"/>
    <trip id="108" depart="540.00" from="-462" to="-270"/>
    <trip id="109" depart="545.00" from="-1916" to="1912"/>
    <trip id="110" depart="550.00" from="-1916" to="1907"/>
    <trip id="111" depart="557.00" from="-1907" to="1072"/>
    <trip id="112" depart="572.00" from="-508" to="1916"/>
    <trip id="113" depart="577.00" from="-315" to="1072"/>
    <trip id="114" depart="582.00" from="-315" to="462"/>
    <trip id="115" depart="586.00" from="270" to="1916"/>
    <trip id="116" depart="599.00" from="-462" to="315"/>
    <trip id="117" depart="609.00" from="-462" to="315"/>
    <trip id="118" depart="618.00" from="-1916" to="315"/>
    <trip id="119" depart="620.00" from="270" to="462"/>
    <trip id="120" depart="621.00" from="-1907" to="1072"/>
    <trip id="121" depart="622.00" from="-462" to="315"/>
    <trip id="122" depart="624.00" from="-1912" to="1072"/>
    <trip id="123" depart="627.00" from="-1072" to="1912"/>
    <trip id="124" depart="634.00" from="-1072" to="1907"/>
    <trip id="125" depart="636.00" from="-1912" to="1916"/>
    <trip id="126" depart="652.00" from="-508" to="1072"/>
    <trip id="127" depart="659.00" from="-1916" to="462"/>
    <trip id="128" depart="659.00" from="270" to="1912"/>
    <trip id="129" depart="663.00" from="-462" to="315"/>
    <trip id="130" depart="663.00" from="-1916" to="508"/>
    <trip id="131" depart="665.00" from="-1916" to="508"/>
    <trip id="132" depart="665.00" from="-1912" to="-270"/>
    <trip id="133" depart="671.00" from="-1916" to="-270"/>
    <trip id="134" depart="675.00" from="-1916" to="462"/>
    <trip id="135" depart="678.00" from="-462" to="315"/>
    <trip id="136" depart="680.00" from="-1907" to="1072"/>
    <trip id="137" depart="682.00" from="-1072" to="315"/>
    <trip id="138" depart="693.00" from="-1912" to="462"/>
    <trip id="139" depart="696.00" from="-462" to="1912"/>
    <trip id="140" depart="702.00" from="-1916" to="462"/>
    <trip id="141" depart="707.00" from="-1072" to="508"/>
    <trip id="142" depart="709.00" from="-1072" to="1907"/>
    <trip id="143" depart="711.00" from="-1916" to="508"/>
    <trip id="144" depart="721.00" from="-1907" to="1072"/>
    <trip id="145" depart="723.00" from="-1916" to="462"/>
    <trip id="146" depart="725.00" from="-1916" to="508"/>
    <trip id="147" depart="729.00" from="270" to="1912"/>
    <trip id="148" depart="732.00" from="-1072" to="315"/>
    <trip id="149" depart="735.00" from="270" to="462"/>
    <trip id="150" depart="738.00" from="-1912" to="-270"/>
    <trip id="151" depart="746.00" from="-315" to="1916"/>
    <trip id="152" depart="753.00" from="-462" to="1916"/>
    <trip id="153" depart="759.00" from="-315" to="1916"/>
    <trip id="154" depart="762.00" from="-315" to="462"/>
    <trip id="155" depart="767.00" from="-1916" to="508"/>
    <trip id="156" depart="770.00" from="-315" to="1072"/>
    <trip id="157" depart="779.00" from="-1912" to="-270"/>
    <trip id="158" depart="784.00" from="-508" to="1072"/>
    <trip id="159" depart="790.00" from="-315" to="462"/>
    <trip id="160" depart="795.00" from="-315" to="462"/>
    <trip id="161" depart="799.00" from="-1912" to="1916"/>
    <trip id="162" depart="803.00" from="-1907" to="1072"/>
    <trip id="163" depart="805.00" from="-462" to="-270"/>
    <trip id="164" depart="805.00" from="-1072" to="315"/>
    <trip id="165" depart="811.00" from="-1916" to="315"/>
    <trip id="166" depart="814.00" from="-1912" to="462"/>
    <trip id="167" depart="819.00" from="270" to="1916"/>
    <trip id="168" depart="824.00" from="-1072" to="1912"/>
    <trip id="169" depart="832.00" from="-1072" to="1912"/>
    <trip id="170" depart="838.00" from="-508" to="1916"/>
    <trip id="171" depart="840.00" from="-1916" to="462"/>
    <trip id="172" depart="842.00" from="270" to="1912"/>
    <trip id="173" depart="847.00" from="-1912" to="462"/>
    <trip id="174" depart="847.00" from="-1916" to="305"/>
    <trip id="175" depart="851.00" from="-1072" to="508"/>
    <trip id="176" depart="852.00" from="-1907" to="1916"/>
    <trip id="177" depart="859.00" from="-315" to="1916"/>
    <trip id="178" depart="865.00" from="-1072" to="1907"/>
    <trip id="179" depart="870.00" from="-1907" to="1916"/>
    <trip id="180" depart="878.00" from="-1916" to="1907"/>
    <trip id="181" depart="881.00" from="270" to="462"/>
    <trip id="182" depart="882.00" from="270" to="462"/>
    <trip id="183" depart="886.00" from="-1072" to="1907"/>
    <trip id="184" depart="887.00" from="-1912" to="462"/>
    <trip id="185" depart="893.00" from="-1916" to="-270"/>
    <trip id="186" depart="895.00" from="-1916" to="315"/>
    <trip id="187" depart="896.00" from="-1916" to="462"/>
    <trip id="188" depart="899.00" from="270" to="1916"/>
    <trip id="189" depart="916.00" from="-508" to="1916"/>
    <trip id="190" depart="918.00" from="-1912" to="1916"/>
    <trip id="191" depart="927.00" from="-1912" to="1072"/>
    <trip id="192" depart="940.00" from="-1072" to="1907"/>
    <trip id="193" depart="949.00" from="-315" to="462"/>
    <trip id="194" depart="952.00" from="-1912" to="1072"/>
    <trip id="195" depart="953.00" from="-1907" to="1072"/>
    <trip id="196" depart="959.00" from="-1072" to="315"/>
    <trip id="197" depart="961.00" from="-1916" to="1912"/>
    <trip id="198" depart="963.00" from="-508" to="1916"/>
    <trip id="199" depart="965.00" from="270" to="1912"/>
    <trip id="200" depart="968.00" from="-508" to="1916"/>
    <trip id="201" depart="973.00" from="-1072" to="508"/>
    <trip id="202" depart="982.00" from="-1072" to="1907"/>
    <trip id="203" depart="986.00" from="270" to="1916"/>
    <trip id="204" depart="988.00" from="-1912" to="1916"/>
    <trip id="205" depart="995.00" from="-1916" to="1907"/>
    <trip id="206" depart="996.00" from="-1916" to="462"/>
    <trip id="207" depart="999.00" from="-1912" to="-270"/>
    <trip id="208" depart="1006.00" from="-1912" to="1916"/>
    <trip id="209" depart="1010.00" from="-1072" to="315"/>
    <trip id="210" depart="1013.00" from="-315" to="462"/>
    <trip id="211" depart="1015.00" from="-1916" to="-307"/>
    <trip id="212" depart="1015.00" from="-1912" to="-270"/>
    <trip id="213" depart="1016.00" from="-1916" to="1912"/>
    <trip id="214" depart="1028.00" from="-1072" to="315"/>
    <trip id="215" depart="1037.00" from="-1912" to="1072"/>
    <trip id="216" depart="1044.00" from="-508" to="1916"/>
    <trip id="217" depart="1051.00" from="-1916" to="1907"/>
    <trip id="218" depart="1055.00" from="-1912" to="462"/>
    <trip id="219" depart="1057.00" from="-1916" to="-270"/>
    <trip id="220" depart="1061.00" from="-1912" to="1072"/>
    <trip id="221" depart="1067.00" from="270" to="462"/>
    <trip id="222" depart="1072.00" from="-1916" to="508"/>
    <trip id="223" depart="1082.00" from="-315" to="1072"/>
    <trip id="224" depart="1085.00" from="-1912" to="1916"/>
    <trip id="225" depart="1088.00" from="-1072" to="1907"/>
    <trip id="226" depart="1105.00" from="-315" to="462"/>
    <trip id="227" depart="1113.00" from="-1912" to="-270"/>
    <trip id="228" depart="1116.00" from="-1072" to="1907"/>
    <trip id="229" depart="1117.00" from="-1916" to="-270"/>
    <trip id="230" depart="1128.00" from="-1907" to="1072"/>
    <trip id="231" depart="1141.00" from="-508" to="1072"/>
    <trip id="232" depart="1148.00" from="-1907" to="1072"/>
    <trip id="233" depart="1151.00" from="270" to="1916"/>
    <trip id="234" depart="1154.00" from="270" to="1912"/>
    <trip id="235" depart="1156.00" from="-1916" to="508"/>
    <trip id="236" depart="1159.00" from="-1907" to="1916"/>
    <trip id="237" depart="1161.00" from="-508" to="1072"/>
    <trip id="238" depart="1162.00" from="-1907" to="1072"/>
    <trip id="239" depart="1166.00" from="-462" to="-270"/>
    <trip id="240" depart="1169.00" from="-1907" to="1916"/>
    <trip id="241" depart="1169.00" from="-1916" to="1907"/>
    <trip id="242" depart="1171.00" from="-1912" to="1072"/>
    <trip id="243" depart="1175.00" from="-508" to="1916"/>
    <trip id="244" depart="1179.00" from="-1912" to="1072"/>
    <trip id="245" depart="1187.00" from="-462" to="315"/>
    <trip id="246" depart="1187.00" from="-462" to="1916"/>
    <trip id="247" depart="1193.00" from="-1072" to="1907"/>
    <trip id="248" depart="1193.00" from="-1916" to="315"/>
    <trip id="249" depart="1196.00" from="-1916" to="1907"/>
    <trip id="250" depart="1197.00" from="-462" to="315"/>
    <trip id="251" depart="1206.00" from="-1072" to="508"/>
    <trip id="252" depart="1212.00" from="-1916" to="1912"/>
    <trip id="253" depart="1214.00" from="270" to="462"/>
    <trip id="254" depart="1216.00" from="-462" to="-270"/>
    <trip id="255" depart="1219.00" from="-1072" to="315"/>
    <trip id="256" depart="1219.00" from="270" to="462"/>
    <trip id="257" depart="1232.00" from="270" to="1912"/>
    <trip id="258" depart="1234.00" from="-1912" to="1916"/>
    <trip id="259" depart="1248.00" from="-1907" to="1072"/>
    <trip id="260" depart="1249.00" from="-1916" to="462"/>
    <trip id="261" depart="1252.00" from="-1916" to="315"/>
    <trip id="262" depart="1252.00" from="-1916" to="1912"/>
    <trip id="263" depart="1260.00" from="-1072" to="1912"/>
    <trip id="264" depart="1268.00" from="-1072" to="508"/>
    <trip id="265" depart="1268.00" from="-1912" to="1916"/>
    <trip id="266" depart="1277.00" from="-1916" to="1912"/>
    <trip id="267" depart="1278.00" from="-1916" to="462"/>
    <trip id="268" depart="1286.00" from="-462" to="1912"/>
    <trip id="269" depart="1287.00" from="-1916" to="-270"/>
    <trip id="270" depart="1292.00" from="-1916" to="462"/>
    <trip id="271" depart="1295.00" from="270" to="1916"/>
    <trip id="272" depart="1300.00" from="-508" to="1916"/>
    <trip id="273" depart="1301.00" from="-1907" to="1916"/>
    <trip id="274" depart="1304.00" from="-462" to="315"/>
    <trip id="275" depart="1311.00" from="-462" to="1916"/>
    <trip id="276" depart="1311.00" from="-1912" to="462"/>
    <trip id="277" depart="1318.00" from="-508" to="1916"/>
    <trip id="278" depart="1330.00" from="-1072" to="315"/>
    <trip id="279" depart="1334.00" from="-1912" to="1072"/>
    <trip id="280" depart="1337.00" from="-462" to="315"/>
    <trip id="281" depart="1338.00" from="-508" to="1072"/>
    <trip id="282" depart="1350.00" from="-1916" to="315"/>
    <trip id="283" depart="1351.00" from="-1912" to="462"/>
    <trip id="284" depart="1355.00" from="270" to="1916"/>
    <trip id="285" depart="1360.00" from="-508" to="1916"/>
    <trip id="286" depart="1368.00" from="-1072" to="1907"/>
    <trip id="287" depart="1373.00" from="-462" to="1916"/>
    <trip id="288" depart="1376.00" from="-1912" to="1072"/>
    <trip id="289" depart="1378.00" from="270" to="1912"/>
    <trip id="290" depart="1388.00" from="-508" to="1072"/>
    <trip id="291" depart="1389.00" from="-1072" to="315"/>
    <trip id="292" depart="1390.00" from="-1072" to="1907"/>
    <trip id="293" depart="1396.00" from="-462" to="315"/>
    <trip id="294" depart="1403.00" from="-1907" to="1072"/>
    <trip id="295" depart="1415.00" from="-1912" to="-270"/>
    <trip id="296" depart="1417.00" from="-1912" to="1916"/>
    <trip id="297" depart="1419.00" from="-1912" to="-270"/>
    <trip id="298" depart="1419.00" from="-1912" to="1072"/>
    <trip id="299" depart="1436.00" from="-1916" to="1912"/>
    <trip id="300" depart="1442.00" from="-1072" to="315"/>
    <trip id="301" depart="1443.00" from="-1072" to="508"/>
    <trip id="302" depart="1445.00" from="-1912" to="462"/>
    <trip id="303" depart="1454.00" from="-1916" to="462"/>
    <trip id="304" depart="1457.00" from="-462" to="1916"/>
    <trip id="305" depart="1458.00" from="-315" to="462"/>
    <trip id="306" depart="1461.00" from="-1072" to="1912"/>
    <trip id="307" depart="1466.00" from="-1912" to="-270"/>
    <trip id="308" depart="1473.00" from="-1912" to="462"/>
    <trip id="309" depart="1478.00" from="-1072" to="1907"/>
    <trip id="310" depart="1488.00" from="-1916" to="1907"/>
    <trip id="311" depart="1494.00" from="-1916" to="315"/>
    <trip id="312" depart="1495.00" from="-1912" to="1072"/>
    <trip id="313" depart="1504.00" from="-1916" to="1912"/>
    <trip id="314" depart="1506.00" from="-1907" to="1916"/>
    <trip id="315" depart="1512.00" from="-1072" to="315"/>
    <trip id="316" depart="1513.00" from="-1072" to="1907"/>
    <trip id="317" depart="1516.00" from="270" to="1916"/>
    <trip id="318" depart="1516.00" from="-462" to="1912"/>
    <trip id="319" depart="1517.00" from="-1912" to="-270"/>
    <trip id="320" depart="1518.00" from="-1912" to="1072"/>
    <trip id="321" depart="1522.00" from="270" to="1916"/>
    <trip id="322" depart="1522.00" from="-1912" to="1072"/>
    <trip id="323" depart="1527.00" from="-462" to="-270"/>
    <trip id="324" depart="1529.00" from="270" to="462"/>
    <trip id="325" depart="1533.00" from="-1072" to="1912"/>
    <trip id="326" depart="1543.00" from="-1072" to="315"/>
    <trip id="327" depart="1544.00" from="-1072" to="1069"/>
    <trip id="328" depart="1548.00" from="-1916" to="508"/>
    <trip id="329" depart="1549.00" from="-462" to="1916"/>
    <trip id="330" depart="1549.00" from="270" to="1912"/>
    <trip id="331" depart="1554.00" from="-1916" to="1907"/>
    <trip id="332" depart="1557.00" from="-508" to="1916"/>
    <trip id="333" depart="1561.00" from="-1916" to="-270"/>
    <trip id="334" depart="1569.00" from="-462" to="1912"/>
    <trip id="335" depart="1578.00" from="-1916" to="-307"/>
    <trip id="336" depart="1592.00" from="-1072" to="508"/>
    <trip id="337" depart="1603.00" from="-1907" to="1072"/>
    <trip id="338" depart="1612.00" from="-1916" to="1912"/>
    <trip id="339" depart="1614.00" from="-462" to="1916"/>
    <trip id="340" depart="1615.00" from="-1907" to="1072"/>
    <trip id="341" depart="1615.00" from="-462" to="315"/>
    <trip id="342" depart="1622.00" from="-1916" to="1907"/>
    <trip id="343" depart="1632.00" from="270" to="1916"/>
    <trip id="344" depart="1639.00" from="-1916" to="462"/>
    <trip id="345" depart="1645.00" from="-508" to="1072"/>
    <trip id="346" depart="1648.00" from="-1916" to="462"/>
    <trip id="347" depart="1656.00" from="-508" to="1072"/>
    <trip id="348" depart="1657.00" from="-315" to="1072"/>
    <trip id="349" depart="1657.00" from="-315" to="1916"/>
    <trip id="350" depart="1658.00" from="-315" to="1916"/>
    <trip id="351" depart="1666.00" from="-1912" to="1916"/>
    <trip id="352" depart="1667.00" from="-508" to="1072"/>
    <trip id="353" depart="1672.00" from="-315" to="1072"/>
    <trip id="354" depart="1673.00" from="-1907" to="1072"/>
    <trip id="355" depart="1679.00" from="270" to="1912"/>
    <trip id="356" depart="1680.00" from="270" to="1916"/>
    <trip id="357" depart="1684.00" from="-1916" to="1907"/>
    <trip id="358" depart="1684.00" from="-1072" to="1912"/>
    <trip id="359" depart="1690.00" from="270" to="1916"/>
    <trip id="360" depart="1693.00" from="-1912" to="1916"/>
    <trip id="361" depart="1694.00" from="-1072" to="1912"/>
    <trip id="362" depart="1700.00" from="-1907" to="1072"/>
    <trip id="363" depart="1709.00" from="-1912" to="-270"/>
    <trip id="364" depart="1718.00" from="-1912" to="1916"/>
    <trip id="365" depart="1721.00" from="-315" to="462"/>
    <trip id="366" depart="1723.00" from="-1907" to="1916"/>
    <trip id="367" depart="1723.00" from="270" to="1916"/>
    <trip id="368" depart="1731.00" from="-1912" to="-270"/>
    <trip id="369" depart="1733.00" from="-1916" to="508"/>
    <trip id="370" depart="1735.00" from="-1907" to="1916"/>
    <trip id="371" depart="1737.00" from="270" to="462"/>
    <trip id="372" depart="1742.00" from="-1072" to="315"/>
    <trip id="373" depart="1748.00" from="-1072" to="1912"/>
    <trip id="374" depart="1751.00" from="-1912" to="1072"/>
    <trip id="375" depart="1752.00" from="-1912" to="1072"/>
    <trip id="376" depart="1762.00" from="-1072" to="508"/>
    <trip id="377" depart="1762.00" from="-1907" to="1072"/>
    <trip id="378" depart="1762.00" from="-315" to="1072"/>
    <trip id="379" depart="1763.00" from="-315" to="1916"/>
    <trip id="380" depart="1769.00" from="-1072" to="1907"/>
    <trip id="381" depart="1773.00" from="-1912" to="1072"/>
    <trip id="382" depart="1775.00" from="-1072" to="1912"/>
    <trip id="383" depart="1779.00" from="-462" to="1912"/>
    <trip id="384" depart="1787.00" from="-462" to="1916"/>
    <trip id="385" depart="1788.00" from="-1912" to="462"/>
    <trip id="386" depart="1789.00" from="270" to="1912"/>
    <trip id="387" depart="1793.00" from="-1072" to="508"/>
    <trip id="388" depart="1794.00" from="-1916" to="508"/>
    <trip id="389" depart="1796.00" from="-508" to="1916"/>
    <trip id="390" depart="1797.00" from="-462" to="315"/>
    <trip id="391" depart="1799.00" from="-1072" to="508"/>
    <trip id="392" depart="1800.00" from="-315" to="462"/>
    <trip id="393" depart="1809.00" from="-1912" to="462"/>
    <trip id="394" depart="1810.00" from="-1916" to="1912"/>
    <trip id="395" depart="1813.00" from="-462" to="1912"/>
    <trip id="396" depart="1822.00" from="-1907" to="1916"/>
    <trip id="397" depart="1827.00" from="-1072" to="315"/>
    <trip id="398" depart="1829.00" from="270" to="462"/>
    <trip id="399" depart="1832.00" from="-508" to="1916"/>
    <trip id="400" depart="1845.00" from="-1907" to="1072"/>
    <trip id="401" depart="1849.00" from="-462" to="-270"/>
    <trip id="402" depart="1851.00" from="-1072" to="508"/>
    <trip id="403" depart="1852.00" from="-315" to="1072"/>
    <trip id="404" depart="1853.00" from="270" to="1916"/>
    <trip id="405" depart="1861.00" from="-1916" to="508"/>
    <trip id="406" depart="1861.00" from="-508" to="1916"/>
    <trip id="407" depart="1866.00" from="-462" to="315"/>
    <trip id="408" depart="1867.00" from="-1916" to="315"/>
    <trip id="409" depart="1871.00" from="-462" to="-270"/>
    <trip id="410" depart="1873.00" from="-315" to="462"/>
    <trip id="411" depart="1876.00" from="-1912" to="462"/>
    <trip id="412" depart="1877.00" from="-1912" to="1916"/>
    <trip id="413" depart="1879.00" from="-1912" to="1072"/>
    <trip id="414" depart="1881.00" from="270" to="462"/>
    <trip id="415" depart="1883.00" from="-1907" to="1916"/>
    <trip id="416" depart="1885.00" from="-1916" to="315"/>
    <trip id="417" depart="1887.00" from="-1916" to="-270"/>
    <trip id="418" depart="1888.00" from="-1072" to="1907"/>
    <trip id="419" depart="1893.00" from="-1916" to="-270"/>
    <trip id="420" depart="1905.00" from="-1916" to="-270"/>
    <trip id="421" depart="1906.00" from="-462" to="-270"/>
    <trip id="422" depart="1909.00" from="-1916" to="508"/>
    <trip id="423" depart="1912.00" from="-1912" to="462"/>
    <trip id="424" depart="1913.00" from="-1072" to="1907"/>
    <trip id="425" depart="1913.00" from="-508" to="1916"/>
    <trip id="426" depart="1915.00" from="-462" to="315"/>
    <trip id="427" depart="1921.00" from="-1916" to="1907"/>
    <trip id="428" depart="1926.00" from="-1072" to="315"/>
    <trip id="429" depart="1926.00" from="-508" to="1916"/>
    <trip id="430" depart="1931.00" from="-1912" to="1072"/>
    <trip id="431" depart="1932.00" from="270" to="1912"/>
    <trip id="432" depart="1933.00" from="-1072" to="1912"/>
    <trip id="433" depart="1933.00" from="-1916" to="315"/>
    <trip id="434" depart="1938.00" from="-462" to="-270"/>
    <trip id="435" depart="1939.00" from="-462" to="1916"/>
    <trip id="436" depart="1945.00" from="-1912" to="-270"/>
    <trip id="437" depart="1946.00" from="-1918" to="1912"/>
    <trip id="438" depart="1947.00" from="-1916" to="-270"/>
    <trip id="439" depart="1956.00" from="-1916" to="315"/>
    <trip id="440" depart="1961.00" from="-1072" to="508"/>
    <trip id="441" depart="1963.00" from="-1912" to="462"/>
    <trip id="442" depart="1966.00" from="-462" to="1912"/>
    <trip id="443" depart="1968.00" from="-1916" to="462"/>
    <trip id="444" depart="1969.00" from="-1912" to="-270"/>
    <trip id="445" depart="1970.00" from="-1912" to="462"/>
    <trip id="446" depart="1972.00" from="-1912" to="1916"/>
    <trip id="447" depart="1973.00" from="-1912" to="1916"/>
    <trip id="448" depart="2007.00" from="-1916" to="1912"/>
    <trip id="449" depart="2014.00" from="-1907" to="1072"/>
    <trip id="450" depart="2016.00" from="-1072" to="1907"/>
    <trip id="451" depart="2018.00" from="-1916" to="-270"/>
    <trip id="452" depart="2019.00" from="-1072" to="508"/>
    <trip id="453" depart="2019.00" from="-1912" to="462"/>
    <trip id="454" depart="2021.00" from="270" to="1912"/>
    <trip id="455" depart="2025.00" from="-1912" to="1916"/>
    <trip id="456" depart="2037.00" from="-1916" to="1912"/>
    <trip id="457" depart="2040.00" from="-462" to="315"/>
    <trip id="458" depart="2045.00" from="-1907" to="1916"/>
    <trip id="459" depart="2049.00" from="270" to="1916"/>
    <trip id="460" depart="2059.00" from="-508" to="1916"/>
    <trip id="461" depart="2060.00" from="-1907" to="1072"/>
    <trip id="462" depart="2064.00" from="270" to="1916"/>
    <trip id="463" depart="2068.00" from="270" to="1916"/>
    <trip id="464" depart="2069.00" from="-508" to="1916"/>
    <trip id="465" depart="2071.00" from="-1916" to="508"/>
    <trip id="466" depart="2072.00" from="-1912" to="1072"/>
    <trip id="467" depart="2073.00" from="270" to="1912"/>
    <trip id="468" depart="2076.00" from="-508" to="1916"/>
    <trip id="469" depart="2078.00" from="-1912" to="-270"/>
    <trip id="470" depart="2079.00" from="-462" to="-270"/>
    <trip id="471" depart="2080.00" from="-315" to="1916"/>
    <trip id="472" depart="2087.00" from="-1072" to="315"/>
    <trip id="473" depart="2094.00" from="-1072" to="1912"/>
    <trip id="474" depart="2096.00" from="-1916" to="462"/>
    <trip id="475" depart="2098.00" from="-462" to="1912"/>
    <trip id="476" depart="2101.00" from="-508" to="1072"/>
    <trip id="477" depart="2106.00" from="-1072" to="1907"/>