<?xml version="1.0" encoding="UTF-8"?>

<!-- generated on 2025-03-10 19:36:03.408282 by randomTrips.py v1_19_0+1770-8bb5c24c187
<configuration>
    <net-file value="random_subnetwork_1.net.xml"/>
    <output-trip-file value="random_subnetwork_1_medium.trips.xml"/>
    <fringe-factor value="100"/>
    <min-distance value="600.0"/>
    <remove-loops value="True"/>
    <validate value="True"/>
    <period value="2.0662342880101017"/>
    <random-depart value="True"/>
    <binomial value="10"/>
</configuration>
-->

<!-- generated on 2025-03-10 19:36:03 by Eclipse SUMO duarouter Version v1_19_0+1770-8bb5c24c187
<configuration xmlns:xsi="http://www.w3.org/2001/XMLSchema-instance" xsi:noNamespaceSchemaLocation="http://sumo.dlr.de/xsd/duarouterConfiguration.xsd">

    <input>
        <net-file value="random_subnetwork_1.net.xml"/>
        <route-files value="random_subnetwork_1_medium.trips.xml"/>
    </input>

    <output>
        <output-file value="random_subnetwork_1_medium.trips.xml.tmp"/>
        <alternatives-output value="NUL"/>
        <write-trips value="true"/>
    </output>

    <processing>
        <remove-loops value="true"/>
    </processing>

    <time>
        <begin value="0.0"/>
        <end value="3600.0"/>
    </time>

    <report>
        <no-warnings value="true"/>
        <ignore-errors value="true"/>
        <no-step-log value="true"/>
    </report>

</configuration>
-->

<routes xmlns:xsi="http://www.w3.org/2001/XMLSchema-instance" xsi:noNamespaceSchemaLocation="http://sumo.dlr.de/xsd/routes_file.xsd">
    <trip id="0" depart="0.00" from="-1912" to="1072"/>
    <trip id="1" depart="0.00" from="-1907" to="1916"/>
    <trip id="2" depart="0.00" from="-315" to="1072"/>
    <trip id="3" depart="1.00" from="-1912" to="1072"/>
    <trip id="4" depart="2.00" from="-1072" to="1907"/>
    <trip id="5" depart="4.00" from="270" to="1907"/>
    <trip id="6" depart="6.00" from="-1072" to="1907"/>
    <trip id="7" depart="7.00" from="-462" to="315"/>
    <trip id="8" depart="9.00" from="-1912" to="-270"/>
    <trip id="9" depart="23.00" from="-462" to="508"/>
    <trip id="10" depart="25.00" from="-1912" to="315"/>
    <trip id="11" depart="25.00" from="-1072" to="508"/>
    <trip id="12" depart="28.00" from="-462" to="1907"/>
    <trip id="13" depart="29.00" from="-1912" to="315"/>
    <trip id="14" depart="31.00" from="270" to="1916"/>
    <trip id="15" depart="34.00" from="-1916" to="1912"/>
    <trip id="17" depart="36.00" from="-508" to="462"/>
    <trip id="18" depart="41.00" from="-1912" to="462"/>
    <trip id="19" depart="42.00" from="-1912" to="315"/>
    <trip id="20" depart="42.00" from="-1072" to="315"/>
    <trip id="21" depart="44.00" from="-315" to="786"/>
    <trip id="22" depart="45.00" from="-1907" to="-270"/>
    <trip id="23" depart="46.00" from="-1912" to="315"/>
    <trip id="24" depart="50.00" from="-508" to="1072"/>
    <trip id="25" depart="51.00" from="-462" to="1912"/>
    <trip id="26" depart="54.00" from="270" to="1916"/>
    <trip id="27" depart="59.00" from="-1912" to="1072"/>
    <trip id="28" depart="62.00" from="-1916" to="1907"/>
    <trip id="29" depart="63.00" from="-462" to="508"/>
    <trip id="30" depart="71.00" from="270" to="1912"/>
    <trip id="31" depart="71.00" from="-315" to="1916"/>
    <trip id="32" depart="73.00" from="-1072" to="315"/>
    <trip id="33" depart="75.00" from="-315" to="1916"/>
    <trip id="34" depart="76.00" from="-462" to="1072"/>
    <trip id="35" depart="83.00" from="-315" to="1912"/>
    <trip id="36" depart="84.00" from="270" to="1916"/>
    <trip id="37" depart="86.00" from="270" to="462"/>
    <trip id="38" depart="88.00" from="-508" to="1072"/>
    <trip id="39" depart="89.00" from="-508" to="1072"/>
    <trip id="40" depart="89.00" from="-1072" to="462"/>
    <trip id="41" depart="91.00" from="-508" to="462"/>
    <trip id="42" depart="98.00" from="270" to="462"/>
    <trip id="43" depart="99.00" from="1448" to="1916"/>
    <trip id="44" depart="99.00" from="-508" to="1072"/>
    <trip id="45" depart="101.00" from="-1072" to="1907"/>
    <trip id="46" depart="102.00" from="-508" to="1072"/>
    <trip id="47" depart="103.00" from="-1072" to="508"/>
    <trip id="48" depart="103.00" from="-1912" to="462"/>
    <trip id="49" depart="116.00" from="-1912" to="462"/>
    <trip id="50" depart="121.00" from="-1072" to="1912"/>
    <trip id="51" depart="121.00" from="270" to="462"/>
    <trip id="52" depart="122.00" from="-508" to="1916"/>
    <trip id="53" depart="123.00" from="-1916" to="462"/>
    <trip id="54" depart="124.00" from="-315" to="1072"/>
    <trip id="55" depart="125.00" from="-462" to="305"/>
    <trip id="56" depart="126.00" from="-315" to="462"/>
    <trip id="57" depart="127.00" from="-1907" to="-270"/>
    <trip id="58" depart="131.00" from="-786" to="1907"/>
    <trip id="59" depart="132.00" from="-1072" to="462"/>
    <trip id="60" depart="137.00" from="-508" to="1916"/>
    <trip id="61" depart="142.00" from="-1072" to="315"/>
    <trip id="62" depart="146.00" from="270" to="1916"/>
    <trip id="63" depart="150.00" from="-1916" to="1912"/>
    <trip id="64" depart="152.00" from="-1916" to="508"/>
    <trip id="65" depart="153.00" from="-1072" to="1907"/>
    <trip id="66" depart="160.00" from="-1916" to="508"/>
    <trip id="67" depart="163.00" from="270" to="1907"/>
    <trip id="68" depart="166.00" from="-462" to="315"/>
    <trip id="69" depart="172.00" from="-1912" to="-270"/>
    <trip id="70" depart="172.00" from="-1916" to="462"/>
    <trip id="71" depart="174.00" from="-1072" to="1907"/>
    <trip id="72" depart="176.00" from="-1907" to="-270"/>
    <trip id="73" depart="176.00" from="-1072" to="315"/>
    <trip id="74" depart="182.00" from="-315" to="1072"/>
    <trip id="75" depart="187.00" from="-1916" to="462"/>
    <trip id="76" depart="187.00" from="-315" to="1912"/>
    <trip id="77" depart="187.00" from="-1907" to="1072"/>
    <trip id="78" depart="189.00" from="-1916" to="462"/>
    <trip id="79" depart="190.00" from="-1907" to="462"/>
    <trip id="80" depart="190.00" from="-1072" to="508"/>
    <trip id="81" depart="190.00" from="270" to="1907"/>
    <trip id="82" depart="193.00" from="-1916" to="1907"/>
    <trip id="83" depart="195.00" from="-1912" to="470"/>
    <trip id="84" depart="195.00" from="-1912" to="-270"/>
    <trip id="85" depart="204.00" from="-1916" to="462"/>
    <trip id="86" depart="205.00" from="-1912" to="1916"/>
    <trip id="87" depart="206.00" from="-1072" to="1912"/>
    <trip id="88" depart="209.00" from="-315" to="1072"/>
    <trip id="89" depart="214.00" from="-1907" to="462"/>
    <trip id="90" depart="214.00" from="-1912" to="1916"/>
    <trip id="91" depart="216.00" from="-462" to="1916"/>
    <trip id="92" depart="222.00" from="-462" to="1912"/>
    <trip id="93" depart="224.00" from="-462" to="1072"/>
    <trip id="94" depart="225.00" from="-1916" to="-470"/>
    <trip id="95" depart="226.00" from="270" to="1912"/>
    <trip id="96" depart="227.00" from="-462" to="1912"/>
    <trip id="97" depart="232.00" from="-1072" to="1907"/>
    <trip id="98" depart="232.00" from="-1072" to="462"/>
    <trip id="99" depart="237.00" from="-1072" to="315"/>
    <trip id="100" depart="238.00" from="-508" to="1072"/>
    <trip id="101" depart="241.00" from="-1907" to="1916"/>
    <trip id="102" depart="242.00" from="-1912" to="462"/>
    <trip id="103" depart="242.00" from="-462" to="-270"/>
    <trip id="104" depart="247.00" from="-1912" to="1916"/>
    <trip id="105" depart="247.00" from="-1916" to="1912"/>
    <trip id="106" depart="248.00" from="-1907" to="462"/>
    <trip id="107" depart="249.00" from="-1072" to="508"/>
    <trip id="108" depart="249.00" from="-315" to="462"/>
    <trip id="109" depart="250.00" from="-462" to="1072"/>
    <trip id="110" depart="250.00" from="-462" to="1072"/>
    <trip id="111" depart="255.00" from="-462" to="508"/>
    <trip id="112" depart="256.00" from="270" to="462"/>
    <trip id="113" depart="257.00" from="-508" to="462"/>
    <trip id="114" depart="260.00" from="-1072" to="315"/>
    <trip id="115" depart="261.00" from="-1916" to="315"/>
    <trip id="116" depart="263.00" from="-462" to="315"/>
    <trip id="117" depart="265.00" from="-1072" to="462"/>
    <trip id="118" depart="273.00" from="-1912" to="1072"/>
    <trip id="119" depart="273.00" from="270" to="1907"/>
    <trip id="120" depart="274.00" from="-462" to="-270"/>
    <trip id="121" depart="276.00" from="-1907" to="462"/>
    <trip id="122" depart="277.00" from="-1907" to="462"/>
    <trip id="123" depart="279.00" from="-508" to="462"/>
    <trip id="124" depart="279.00" from="-1912" to="462"/>
    <trip id="125" depart="283.00" from="-462" to="1916"/>
    <trip id="126" depart="289.00" from="-1912" to="462"/>
    <trip id="127" depart="290.00" from="-1072" to="1907"/>
    <trip id="128" depart="293.00" from="-462" to="-270"/>
    <trip id="129" depart="296.00" from="-315" to="1072"/>
    <trip id="130" depart="296.00" from="-462" to="508"/>
    <trip id="131" depart="298.00" from="-1912" to="462"/>
    <trip id="132" depart="298.00" from="-508" to="1072"/>
    <trip id="133" depart="300.00" from="-1916" to="-270"/>
    <trip id="134" depart="305.00" from="-462" to="1907"/>
    <trip id="135" depart="308.00" from="-1907" to="1072"/>
    <trip id="136" depart="315.00" from="-1912" to="462"/>
    <trip id="138" depart="317.00" from="-1912" to="1916"/>
    <trip id="139" depart="323.00" from="-462" to="1912"/>
    <trip id="140" depart="324.00" from="-1072" to="315"/>
    <trip id="141" depart="327.00" from="-462" to="1916"/>
    <trip id="142" depart="330.00" from="-315" to="1916"/>
    <trip id="143" depart="334.00" from="-1907" to="1072"/>
    <trip id="144" depart="336.00" from="-315" to="1912"/>
    <trip id="145" depart="340.00" from="-1916" to="-270"/>
    <trip id="146" depart="344.00" from="-315" to="1916"/>
    <trip id="147" depart="344.00" from="-462" to="315"/>
    <trip id="148" depart="347.00" from="-1072" to="1912"/>
    <trip id="149" depart="348.00" from="-315" to="1072"/>
    <trip id="150" depart="350.00" from="-462" to="315"/>
    <trip id="151" depart="354.00" from="270" to="1912"/>
    <trip id="152" depart="354.00" from="-1916" to="508"/>
    <trip id="153" depart="355.00" from="-315" to="1916"/>
    <trip id="154" depart="356.00" from="-1912" to="462"/>
    <trip id="155" depart="359.00" from="-462" to="508"/>
    <trip id="156" depart="359.00" from="-508" to="1072"/>
    <trip id="157" depart="362.00" from="-1916" to="508"/>
    <trip id="158" depart="364.00" from="-1907" to="1916"/>
    <trip id="159" depart="369.00" from="-1072" to="462"/>
    <trip id="160" depart="373.00" from="-462" to="315"/>
    <trip id="161" depart="374.00" from="-1916" to="462"/>
    <trip id="162" depart="375.00" from="270" to="1916"/>
    <trip id="163" depart="377.00" from="-508" to="462"/>
    <trip id="164" depart="377.00" from="-1916" to="-270"/>
    <trip id="165" depart="378.00" from="-1916" to="1912"/>
    <trip id="166" depart="380.00" from="-1907" to="-270"/>
    <trip id="167" depart="383.00" from="-1916" to="462"/>
    <trip id="168" depart="384.00" from="270" to="1916"/>
    <trip id="169" depart="385.00" from="-1072" to="462"/>
    <trip id="170" depart="390.00" from="-462" to="1907"/>
    <trip id="171" depart="390.00" from="-508" to="462"/>
    <trip id="172" depart="394.00" from="-1072" to="1907"/>
    <trip id="173" depart="400.00" from="-1912" to="1916"/>
    <trip id="174" depart="400.00" from="-1912" to="1072"/>
    <trip id="175" depart="403.00" from="-1912" to="-270"/>
    <trip id="176" depart="407.00" from="-1072" to="462"/>
    <trip id="177" depart="408.00" from="-462" to="-270"/>
    <trip id="178" depart="409.00" from="-1907" to="1916"/>
    <trip id="179" depart="409.00" from="-1912" to="462"/>
    <trip id="180" depart="410.00" from="-1916" to="1907"/>
    <trip id="182" depart="411.00" from="-1907" to="1916"/>
    <trip id="183" depart="413.00" from="-462" to="-270"/>
    <trip id="185" depart="420.00" from="-462" to="1907"/>
    <trip id="186" depart="421.00" from="307" to="1916"/>
    <trip id="187" depart="428.00" from="-315" to="1912"/>
    <trip id="188" depart="429.00" from="-462" to="1916"/>
    <trip id="189" depart="433.00" from="-1072" to="462"/>
    <trip id="190" depart="434.00" from="-1072" to="315"/>
    <trip id="191" depart="435.00" from="-1912" to="315"/>
    <trip id="192" depart="437.00" from="270" to="1916"/>
    <trip id="193" depart="438.00" from="-1916" to="1912"/>
    <trip id="194" depart="439.00" from="-1916" to="1912"/>
    <trip id="195" depart="441.00" from="-1916" to="-270"/>
    <trip id="196" depart="442.00" from="-462" to="1916"/>
    <trip id="197" depart="447.00" from="-1916" to="1907"/>
    <trip id="198" depart="452.00" from="-1907" to="1072"/>
    <trip id="199" depart="454.00" from="270" to="1912"/>
    <trip id="200" depart="457.00" from="-462" to="1912"/>
    <trip id="201" depart="462.00" from="-462" to="1916"/>
    <trip id="202" depart="464.00" from="-315" to="1072"/>
    <trip id="203" depart="467.00" from="270" to="1912"/>
    <trip id="204" depart="468.00" from="270" to="1912"/>
    <trip id="205" depart="470.00" from="-1912" to="1072"/>
    <trip id="206" depart="470.00" from="-1072" to="508"/>
    <trip id="207" depart="477.00" from="270" to="462"/>
    <trip id="208" depart="478.00" from="-462" to="508"/>
    <trip id="209" depart="480.00" from="-1072" to="462"/>
    <trip id="210" depart="480.00" from="-1072" to="462"/>
    <trip id="211" depart="481.00" from="-1916" to="508"/>
    <trip id="212" depart="481.00" from="-1907" to="-270"/>
    <trip id="213" depart="484.00" from="-1072" to="462"/>
    <trip id="214" depart="485.00" from="-1916" to="-270"/>
    <trip id="215" depart="486.00" from="-1072" to="1907"/>
    <trip id="216" depart="487.00" from="-462" to="1907"/>
    <trip id="217" depart="488.00" from="-1907" to="462"/>
    <trip id="218" depart="494.00" from="-1916" to="462"/>
    <trip id="219" depart="494.00" from="-315" to="1912"/>
    <trip id="220" depart="495.00" from="-462" to="508"/>
    <trip id="221" depart="496.00" from="-1916" to="462"/>
    <trip id="222" depart="497.00" from="-1916" to="1907"/>
    <trip id="223" depart="506.00" from="-462" to="1907"/>
    <trip id="224" depart="507.00" from="-1912" to="-270"/>
    <trip id="225" depart="507.00" from="270" to="1912"/>
    <trip id="226" depart="508.00" from="-462" to="508"/>
    <trip id="227" depart="510.00" from="-315" to="1912"/>
    <trip id="228" depart="515.00" from="-508" to="462"/>
    <trip id="229" depart="516.00" from="-1072" to="1907"/>
    <trip id="230" depart="521.00" from="-1916" to="1907"/>
    <trip id="231" depart="524.00" from="-508" to="1072"/>
    <trip id="232" depart="525.00" from="-1072" to="462"/>
    <trip id="233" depart="528.00" from="-1907" to="1072"/>
    <trip id="234" depart="530.00" from="-1912" to="-270"/>
    <trip id="235" depart="538.00" from="-1916" to="508"/>
    <trip id="236" depart="538.00" from="-315" to="462"/>
    <trip id="237" depart="540.00" from="-1072" to="462"/>
    <trip id="238" depart="541.00" from="270" to="1907"/>
    <trip id="239" depart="542.00" from="-508" to="1916"/>
    <trip id="240" depart="544.00" from="307" to="1912"/>
    <trip id="241" depart="547.00" from="-315" to="1072"/>
    <trip id="242" depart="550.00" from="-1907" to="1072"/>
    <trip id="243" depart="551.00" from="-315" to="462"/>
    <trip id="244" depart="556.00" from="270" to="1916"/>
    <trip id="245" depart="559.00" from="270" to="1912"/>
    <trip id="246" depart="560.00" from="-1072" to="315"/>
    <trip id="247" depart="567.00" from="-462" to="315"/>
    <trip id="248" depart="569.00" from="-1912" to="1916"/>
    <trip id="249" depart="571.00" from="-1907" to="462"/>
    <trip id="250" depart="573.00" from="-1912" to="315"/>
    <trip id="251" depart="573.00" from="-1912" to="315"/>
    <trip id="252" depart="575.00" from="-462" to="315"/>
    <trip id="253" depart="577.00" from="270" to="1907"/>
    <trip id="254" depart="581.00" from="-462" to="1916"/>
    <trip id="255" depart="582.00" from="-1072" to="1912"/>
    <trip id="256" depart="585.00" from="-1916" to="315"/>
    <trip id="257" depart="586.00" from="270" to="462"/>
    <trip id="258" depart="587.00" from="-1907" to="1072"/>
    <trip id="259" depart="588.00" from="-462" to="315"/>
    <trip id="260" depart="591.00" from="-1912" to="1072"/>
    <trip id="261" depart="594.00" from="-1072" to="508"/>
    <trip id="262" depart="595.00" from="-1072" to="1912"/>
    <trip id="263" depart="595.00" from="270" to="1907"/>
    <trip id="265" depart="601.00" from="-1907" to="-270"/>
    <trip id="266" depart="603.00" from="-1912" to="1916"/>
    <trip id="267" depart="604.00" from="-1912" to="315"/>
    <trip id="268" depart="605.00" from="-508" to="1916"/>
    <trip id="269" depart="606.00" from="-462" to="-270"/>
    <trip id="270" depart="613.00" from="270" to="1907"/>
    <trip id="271" depart="618.00" from="-508" to="1072"/>
    <trip id="272" depart="619.00" from="-1916" to="1912"/>
    <trip id="273" depart="621.00" from="-1072" to="1912"/>
    <trip id="274" depart="625.00" from="-1916" to="462"/>
    <trip id="275" depart="625.00" from="270" to="1912"/>
    <trip id="276" depart="626.00" from="-462" to="1916"/>
    <trip id="277" depart="628.00" from="-462" to="315"/>
    <trip id="278" depart="628.00" from="-1916" to="508"/>
    <trip id="279" depart="629.00" from="-462" to="1907"/>
    <trip id="280" depart="630.00" from="-1916" to="508"/>
    <trip id="281" depart="630.00" from="-1912" to="-270"/>
    <trip id="282" depart="635.00" from="-1907" to="-270"/>
    <trip id="283" depart="636.00" from="-462" to="508"/>
    <trip id="284" depart="638.00" from="-1912" to="462"/>
    <trip id="285" depart="640.00" from="-1916" to="462"/>
    <trip id="286" depart="643.00" from="-508" to="462"/>
    <trip id="287" depart="645.00" from="-1907" to="786"/>
    <trip id="288" depart="647.00" from="-1072" to="1907"/>
    <trip id="289" depart="647.00" from="-462" to="1907"/>
    <trip id="290" depart="647.00" from="-1072" to="315"/>
    <trip id="291" depart="650.00" from="-315" to="1072"/>
    <trip id="292" depart="653.00" from="-1907" to="1072"/>
    <trip id="293" depart="656.00" from="-1907" to="1072"/>
    <trip id="294" depart="657.00" from="-1912" to="462"/>
    <trip id="295" depart="661.00" from="-508" to="462"/>
    <trip id="297" depart="663.00" from="-462" to="1912"/>
    <trip id="298" depart="666.00" from="-1907" to="-270"/>
    <trip id="299" depart="672.00" from="-1072" to="508"/>
    <trip id="300" depart="673.00" from="-1072" to="1907"/>
    <trip id="301" depart="674.00" from="-462" to="1072"/>
    <trip id="302" depart="675.00" from="-508" to="462"/>
    <trip id="303" depart="683.00" from="270" to="1916"/>
    <trip id="304" depart="684.00" from="-1907" to="1916"/>
    <trip id="305" depart="685.00" from="-1907" to="1072"/>
    <trip id="306" depart="687.00" from="-1916" to="462"/>
    <trip id="307" depart="689.00" from="-1916" to="508"/>
    <trip id="308" depart="690.00" from="270" to="1912"/>
    <trip id="309" depart="691.00" from="-462" to="315"/>
    <trip id="310" depart="692.00" from="270" to="1912"/>
    <trip id="311" depart="695.00" from="-1072" to="315"/>
    <trip id="312" depart="698.00" from="270" to="462"/>
    <trip id="313" depart="702.00" from="-1912" to="-270"/>
    <trip id="314" depart="710.00" from="-315" to="1916"/>
    <trip id="315" depart="716.00" from="-462" to="1916"/>
    <trip id="316" depart="718.00" from="-462" to="508"/>
    <trip id="317" depart="720.00" from="-315" to="1916"/>
    <trip id="318" depart="721.00" from="-315" to="1916"/>
    <trip id="319" depart="724.00" from="270" to="1916"/>
    <trip id="320" depart="724.00" from="-315" to="462"/>
    <trip id="321" depart="729.00" from="-462" to="1907"/>
    <trip id="322" depart="729.00" from="-1916" to="508"/>
    <trip id="323" depart="732.00" from="-315" to="1072"/>
    <trip id="324" depart="740.00" from="-1916" to="1907"/>
    <trip id="325" depart="741.00" from="-1912" to="-270"/>
    <trip id="326" depart="743.00" from="-1916" to="315"/>
    <trip id="327" depart="745.00" from="-508" to="1072"/>
    <trip id="328" depart="748.00" from="-1916" to="1907"/>
    <trip id="329" depart="750.00" from="-508" to="1072"/>
    <trip id="330" depart="750.00" from="-315" to="462"/>
    <trip id="331" depart="753.00" from="-1907" to="1916"/>
    <trip id="332" depart="755.00" from="-1907" to="-270"/>
    <trip id="333" depart="757.00" from="-1907" to="-270"/>
    <trip id="334" depart="758.00" from="-1912" to="1916"/>
    <trip id="335" depart="763.00" from="-1907" to="1072"/>
    <trip id="336" depart="764.00" from="-508" to="462"/>
    <trip id="337" depart="765.00" from="-1907" to="-270"/>
    <trip id="338" depart="765.00" from="-1072" to="315"/>
    <trip id="339" depart="767.00" from="-462" to="1072"/>
    <trip id="340" depart="770.00" from="-462" to="1907"/>
    <trip id="341" depart="774.00" from="-1912" to="462"/>
    <trip id="342" depart="775.00" from="270" to="1907"/>
    <trip id="343" depart="776.00" from="-1912" to="-270"/>
    <trip id="344" depart="778.00" from="-1072" to="462"/>
    <trip id="345" depart="781.00" from="-1912" to="1916"/>
    <trip id="346" depart="782.00" from="-315" to="1916"/>
    <trip id="347" depart="782.00" from="-1072" to="1907"/>
    <trip id="348" depart="789.00" from="-1916" to="315"/>
    <trip id="349" depart="790.00" from="-1072" to="1912"/>
    <trip id="350" depart="792.00" from="-462" to="1907"/>
    <trip id="351" depart="792.00" from="270" to="1907"/>
    <trip id="352" depart="796.00" from="-508" to="1916"/>
    <trip id="353" depart="797.00" from="-1916" to="462"/>
    <trip id="354" depart="799.00" from="270" to="1912"/>
    <trip id="355" depart="803.00" from="-1916" to="-270"/>
    <trip id="356" depart="803.00" from="-1912" to="462"/>
    <trip id="357" depart="804.00" from="-508" to="462"/>
    <trip id="358" depart="807.00" from="-462" to="508"/>
    <trip id="359" depart="811.00" from="-1072" to="508"/>
    <trip id="360" depart="811.00" from="-1907" to="1916"/>
    <trip id="361" depart="812.00" from="-315" to="1072"/>
    <trip id="362" depart="812.00" from="-1907" to="462"/>
    <trip id="363" depart="816.00" from="-315" to="1916"/>
    <trip id="364" depart="817.00" from="-1072" to="315"/>
    <trip id="365" depart="817.00" from="-315" to="1912"/>
    <trip id="366" depart="821.00" from="-462" to="-270"/>
    <trip id="367" depart="822.00" from="-1072" to="1907"/>
    <trip id="368" depart="827.00" from="-1907" to="462"/>
    <trip id="369" depart="830.00" from="-462" to="1912"/>
    <trip id="370" depart="833.00" from="-1912" to="-270"/>
    <trip id="371" depart="836.00" from="-1916" to="1907"/>
    <trip id="372" depart="839.00" from="-1912" to="315"/>
    <trip id="373" depart="839.00" from="270" to="462"/>
    <trip id="374" depart="842.00" from="-315" to="1912"/>
    <trip id="375" depart="844.00" from="-1072" to="1907"/>
    <trip id="376" depart="844.00" from="-1912" to="462"/>
    <trip id="377" depart="849.00" from="-1916" to="462"/>
    <trip id="378" depart="850.00" from="-1916" to="-270"/>
    <trip id="379" depart="852.00" from="-1916" to="315"/>
    <trip id="380" depart="853.00" from="-1916" to="462"/>
    <trip id="381" depart="856.00" from="-1072" to="1907"/>
    <trip id="382" depart="856.00" from="-1916" to="315"/>
    <trip id="383" depart="860.00" from="-508" to="1072"/>
    <trip id="384" depart="869.00" from="-1912" to="1448"/>
    <trip id="385" depart="870.00" from="-315" to="1916"/>
    <trip id="386" depart="871.00" from="-462" to="1912"/>
    <trip id="387" depart="871.00" from="-1072" to="462"/>
    <trip id="388" depart="874.00" from="-1907" to="-270"/>
    <trip id="389" depart="879.00" from="-1912" to="1916"/>
    <trip id="390" depart="879.00" from="-1907" to="1072"/>
    <trip id="391" depart="880.00" from="-508" to="1916"/>
    <trip id="392" depart="882.00" from="-1912" to="315"/>
    <trip id="393" depart="885.00" from="-462" to="-270"/>
    <trip id="394" depart="888.00" from="-508" to="1916"/>
    <trip id="395" depart="889.00" from="-462" to="1907"/>
    <trip id="396" depart="895.00" from="-1072" to="1907"/>
    <trip id="397" depart="895.00" from="-1916" to="315"/>
    <trip id="398" depart="897.00" from="-462" to="1907"/>
    <trip id="399" depart="902.00" from="-315" to="462"/>
    <trip id="400" depart="902.00" from="-315" to="462"/>
    <trip id="401" depart="906.00" from="-462" to="-270"/>
    <trip id="402" depart="907.00" from="-1907" to="1072"/>
    <trip id="403" depart="913.00" from="-1072" to="315"/>
    <trip id="404" depart="915.00" from="-1072" to="508"/>
    <trip id="405" depart="917.00" from="-508" to="1916"/>
    <trip id="406" depart="918.00" from="-1912" to="1072"/>
    <trip id="407" depart="919.00" from="-315" to="1912"/>
    <trip id="408" depart="923.00" from="-508" to="1916"/>
    <trip id="409" depart="925.00" from="-508" to="1916"/>
    <trip id="410" depart="927.00" from="-1072" to="508"/>
    <trip id="411" depart="935.00" from="-462" to="315"/>
    <trip id="412" depart="936.00" from="-1072" to="1907"/>
    <trip id="413" depart="936.00" from="-1072" to="315"/>
    <trip id="414" depart="938.00" from="-1072" to="508"/>
    <trip id="415" depart="939.00" from="-508" to="462"/>
    <trip id="416" depart="942.00" from="-1912" to="1916"/>
    <trip id="417" depart="946.00" from="-315" to="1072"/>
    <trip id="418" depart="947.00" from="-1072" to="315"/>
    <trip id="419" depart="948.00" from="-1916" to="1907"/>
    <trip id="420" depart="949.00" from="-315" to="1912"/>
    <trip id="421" depart="950.00" from="-1912" to="462"/>
    <trip id="422" depart="951.00" from="-1912" to="-270"/>
    <trip id="423" depart="956.00" from="270" to="1912"/>
    <trip id="424" depart="957.00" from="-1912" to="1916"/>
    <trip id="425" depart="961.00" from="-1912" to="315"/>
    <trip id="426" depart="962.00" from="-462" to="1072"/>
    <trip id="427" depart="964.00" from="-462" to="508"/>
    <trip id="428" depart="967.00" from="-1916" to="-307"/>
    <trip id="429" depart="967.00" from="-1912" to="-270"/>
    <trip id="430" depart="968.00" from="-1916" to="1912"/>
    <trip id="431" depart="969.00" from="-462" to="1916"/>
    <trip id="432" depart="970.00" from="-462" to="1072"/>
    <trip id="433" depart="970.00" from="270" to="1916"/>
    <trip id="434" depart="979.00" from="-1072" to="315"/>
    <trip id="435" depart="980.00" from="-1916" to="315"/>
    <trip id="436" depart="986.00" from="-462" to="315"/>
    <trip id="437" depart="987.00" from="270" to="1907"/>
    <trip id="438" depart="991.00" from="-315" to="1916"/>
    <trip id="439" depart="994.00" from="-508" to="1916"/>
    <trip id="440" depart="1001.00" from="-462" to="1072"/>
    <trip id="441" depart="1003.00" from="-462" to="315"/>
    <trip id="442" depart="1006.00" from="-1912" to="462"/>
    <trip id="443" depart="1007.00" from="-1072" to="1912"/>
    <trip id="444" depart="1008.00" from="-1916" to="-270"/>
    <trip id="445" depart="1011.00" from="-1912" to="1072"/>
    <trip id="446" depart="1012.00" from="-315" to="462"/>
    <trip id="447" depart="1017.00" from="270" to="462"/>
    <trip id="448" depart="1021.00" from="-1072" to="1907"/>
    <trip id="449" depart="1022.00" from="-1916" to="508"/>
    <trip id="450" depart="1026.00" from="270" to="1912"/>
    <trip id="451" depart="1026.00" from="-1907" to="1072"/>
    <trip id="452" depart="1026.00" from="-508" to="1072"/>
    <trip id="453" depart="1031.00" from="-462" to="1907"/>
    <trip id="454" depart="1034.00" from="-1912" to="1916"/>
    <trip id="455" depart="1037.00" from="-1072" to="1907"/>
    <trip id="456" depart="1046.00" from="270" to="462"/>
    <trip id="457" depart="1046.00" from="-1916" to="508"/>
    <trip id="458" depart="1053.00" from="-1907" to="1072"/>
    <trip id="459" depart="1053.00" from="-1907" to="-270"/>
    <trip id="460" depart="1061.00" from="-1912" to="-270"/>
    <trip id="461" depart="1064.00" from="-1072" to="1907"/>
    <trip id="462" depart="1065.00" from="-1916" to="-270"/>
    <trip id="463" depart="1067.00" from="-1907" to="1916"/>
    <trip id="464" depart="1071.00" from="270" to="462"/>
    <trip id="465" depart="1071.00" from="270" to="1907"/>
    <trip id="466" depart="1072.00" from="-1912" to="1072"/>
    <trip id="467" depart="1074.00" from="-462" to="508"/>
    <trip id="468" depart="1074.00" from="-1907" to="462"/>
    <trip id="469" depart="1075.00" from="-1907" to="1072"/>
    <trip id="470" depart="1081.00" from="270" to="462"/>
    <trip id="471" depart="1088.00" from="-508" to="1072"/>
    <trip id="472" depart="1095.00" from="-1907" to="1072"/>
    <trip id="473" depart="1098.00" from="270" to="1916"/>
    <trip id="474" depart="1100.00" from="270" to="1912"/>
    <trip id="475" depart="1102.00" from="-508" to="462"/>
    <trip id="476" depart="1102.00" from="-1916" to="508"/>
    <trip id="477" depart="1103.00" from="-462" to="315"/>
    <trip id="478" depart="1105.00" from="-1072" to="462"/>
    <trip id="479" depart="1107.00" from="-508" to="1072"/>
    <trip id="480" depart="1109.00" from="-1907" to="1072"/>
    <trip id="481" depart="1112.00" from="-1912" to="315"/>
    <trip id="482" depart="1113.00" from="-1916" to="508"/>
    <trip id="483" depart="1114.00" from="-1916" to="-270"/>
    <trip id="484" depart="1115.00" from="-1916" to="1907"/>
    <trip id="485" depart="1117.00" from="-1912" to="1072"/>
    <trip id="486" depart="1121.00" from="-508" to="1916"/>
    <trip id="487" depart="1125.00" from="-1912" to="1072"/>
    <trip id="488" depart="1125.00" from="-1072" to="1912"/>