<?xml version="1.0" encoding="UTF-8"?>

<!-- generated on 2025-03-19 08:53:38.929215 by randomTrips.py v1_22_0+0449-9311ec3459f
<configuration>
    <net-file value="random_subnetwork_1.net.xml"/>
    <output-trip-file value="random_subnetwork_1_light.trips.xml"/>
    <fringe-factor value="100"/>
    <min-distance value="600.0"/>
    <remove-loops value="True"/>
    <validate value="True"/>
    <period value="2.5"/>
    <random-depart value="True"/>
    <binomial value="10"/>
</configuration>
-->

<!-- generated on 2025-03-19 08:53:38 by Eclipse SUMO duarouter Version v1_22_0+0449-9311ec3459f
<duarouterConfiguration xmlns:xsi="http://www.w3.org/2001/XMLSchema-instance" xsi:noNamespaceSchemaLocation="http://sumo.dlr.de/xsd/duarouterConfiguration.xsd">

    <input>
        <net-file value="random_subnetwork_1.net.xml"/>
        <route-files value="random_subnetwork_1_light.trips.xml"/>
    </input>

    <output>
        <output-file value="random_subnetwork_1_light.trips.xml.tmp"/>
        <alternatives-output value="NUL"/>
        <write-trips value="true"/>
    </output>

    <processing>
        <remove-loops value="true"/>
    </processing>

    <time>
        <begin value="0.0"/>
        <end value="3600.0"/>
    </time>

    <report>
        <no-warnings value="true"/>
        <ignore-errors value="true"/>
        <no-step-log value="true"/>
    </report>

</duarouterConfiguration>
-->

<routes xmlns:xsi="http://www.w3.org/2001/XMLSchema-instance" xsi:noNamespaceSchemaLocation="http://sumo.dlr.de/xsd/routes_file.xsd">
    <trip id="0" depart="0.00" from="-1912" to="1072"/>
    <trip id="1" depart="0.00" from="-1907" to="1916"/>
    <trip id="2" depart="0.00" from="-315" to="1072"/>
    <trip id="3" depart="1.00" from="-1912" to="1072"/>
    <trip id="4" depart="5.00" from="270" to="1907"/>
    <trip id="5" depart="8.00" from="-462" to="315"/>
    <trip id="6" depart="10.00" from="-1912" to="-270"/>
    <trip id="7" depart="24.00" from="-462" to="508"/>
    <trip id="8" depart="26.00" from="-1912" to="315"/>
    <trip id="9" depart="26.00" from="-1072" to="508"/>
    <trip id="10" depart="29.00" from="-462" to="1907"/>
    <trip id="11" depart="30.00" from="-1912" to="315"/>
    <trip id="12" depart="32.00" from="270" to="1916"/>
    <trip id="13" depart="35.00" from="-1916" to="1912"/>
    <trip id="15" depart="37.00" from="-508" to="462"/>
    <trip id="16" depart="42.00" from="-1912" to="462"/>
    <trip id="17" depart="43.00" from="-1912" to="315"/>
    <trip id="18" depart="44.00" from="-1072" to="315"/>
    <trip id="19" depart="45.00" from="-315" to="786"/>
    <trip id="20" depart="46.00" from="-1907" to="-270"/>
    <trip id="21" depart="47.00" from="-1912" to="315"/>
    <trip id="22" depart="51.00" from="-508" to="1072"/>
    <trip id="23" depart="52.00" from="-462" to="1912"/>
    <trip id="24" depart="56.00" from="270" to="1916"/>
    <trip id="25" depart="60.00" from="-1912" to="1072"/>
    <trip id="26" depart="63.00" from="-1916" to="1907"/>
    <trip id="27" depart="74.00" from="-315" to="1916"/>
    <trip id="28" depart="76.00" from="-1072" to="315"/>
    <trip id="29" depart="79.00" from="-462" to="1072"/>
    <trip id="30" depart="86.00" from="-315" to="1912"/>
    <trip id="31" depart="87.00" from="270" to="1916"/>
    <trip id="32" depart="89.00" from="270" to="462"/>
    <trip id="33" depart="91.00" from="-508" to="1072"/>
    <trip id="34" depart="92.00" from="-508" to="1072"/>
    <trip id="35" depart="92.00" from="-1072" to="462"/>
    <trip id="36" depart="101.00" from="270" to="462"/>
    <trip id="37" depart="102.00" from="1448" to="1916"/>
    <trip id="38" depart="102.00" from="-508" to="1072"/>
    <trip id="39" depart="105.00" from="-1912" to="1072"/>
    <trip id="40" depart="105.00" from="-508" to="1072"/>
    <trip id="41" depart="106.00" from="270" to="462"/>
    <trip id="42" depart="107.00" from="-1912" to="462"/>
    <trip id="43" depart="120.00" from="-1912" to="462"/>
    <trip id="44" depart="124.00" from="-1072" to="1912"/>
    <trip id="45" depart="125.00" from="270" to="462"/>
    <trip id="46" depart="126.00" from="-508" to="1916"/>
    <trip id="47" depart="127.00" from="-315" to="1072"/>
    <trip id="48" depart="129.00" from="-462" to="305"/>
    <trip id="49" depart="136.00" from="-1072" to="462"/>
    <trip id="50" depart="141.00" from="-508" to="1916"/>
    <trip id="51" depart="146.00" from="-1072" to="315"/>
    <trip id="52" depart="151.00" from="270" to="1916"/>
    <trip id="53" depart="157.00" from="-1916" to="508"/>
    <trip id="54" depart="158.00" from="-1072" to="1907"/>
    <trip id="55" depart="165.00" from="-1916" to="508"/>
    <trip id="56" depart="167.00" from="270" to="1907"/>
    <trip id="57" depart="171.00" from="-462" to="315"/>
    <trip id="58" depart="177.00" from="-1916" to="462"/>
    <trip id="59" depart="179.00" from="-1072" to="1907"/>
    <trip id="60" depart="181.00" from="-1907" to="-270"/>
    <trip id="61" depart="181.00" from="-1072" to="315"/>
    <trip id="62" depart="187.00" from="-315" to="1072"/>
    <trip id="63" depart="192.00" from="-1916" to="462"/>
    <trip id="64" depart="192.00" from="-315" to="1912"/>
    <trip id="65" depart="192.00" from="-1907" to="1072"/>
    <trip id="66" depart="194.00" from="-1916" to="462"/>
    <trip id="67" depart="196.00" from="270" to="1907"/>
    <trip id="68" depart="198.00" from="-1916" to="1907"/>
    <trip id="69" depart="200.00" from="-1912" to="470"/>
    <trip id="70" depart="200.00" from="-1912" to="-270"/>
    <trip id="71" depart="210.00" from="-1912" to="1916"/>
    <trip id="72" depart="211.00" from="-1072" to="1912"/>
    <trip id="73" depart="214.00" from="-315" to="1072"/>
    <trip id="74" depart="219.00" from="-1907" to="462"/>
    <trip id="75" depart="220.00" from="-1912" to="1916"/>
    <trip id="76" depart="228.00" from="-462" to="1912"/>
    <trip id="77" depart="230.00" from="-462" to="1072"/>
    <trip id="78" depart="231.00" from="-1916" to="-470"/>
    <trip id="79" depart="232.00" from="270" to="1912"/>
    <trip id="80" depart="233.00" from="-462" to="1912"/>
    <trip id="81" depart="238.00" from="-1072" to="1907"/>
    <trip id="82" depart="238.00" from="-1072" to="462"/>
    <trip id="83" depart="242.00" from="-1072" to="315"/>
    <trip id="84" depart="247.00" from="-1907" to="1916"/>
    <trip id="85" depart="248.00" from="-1912" to="462"/>
    <trip id="86" depart="248.00" from="-462" to="-270"/>
    <trip id="87" depart="254.00" from="-1916" to="1912"/>
    <trip id="88" depart="255.00" from="-1907" to="462"/>
    <trip id="89" depart="255.00" from="-1072" to="508"/>
    <trip id="90" depart="257.00" from="-462" to="1072"/>
    <trip id="91" depart="257.00" from="-462" to="1072"/>
    <trip id="92" depart="262.00" from="-462" to="508"/>
    <trip id="93" depart="263.00" from="270" to="462"/>
    <trip id="94" depart="264.00" from="-508" to="462"/>
    <trip id="95" depart="267.00" from="-1072" to="315"/>
    <trip id="96" depart="268.00" from="-1916" to="315"/>
    <trip id="97" depart="270.00" from="-462" to="315"/>
    <trip id="98" depart="272.00" from="-1072" to="462"/>
    <trip id="99" depart="280.00" from="-1912" to="1072"/>
    <trip id="100" depart="280.00" from="270" to="1907"/>
    <trip id="101" depart="281.00" from="-462" to="-270"/>
    <trip id="102" depart="283.00" from="-1907" to="462"/>
    <trip id="103" depart="284.00" from="-1907" to="462"/>
    <trip id="104" depart="286.00" from="-508" to="462"/>
    <trip id="105" depart="286.00" from="-1912" to="462"/>
    <trip id="106" depart="290.00" from="-462" to="1916"/>
    <trip id="107" depart="296.00" from="-1912" to="462"/>
    <trip id="108" depart="297.00" from="-1072" to="1907"/>
    <trip id="109" depart="300.00" from="-462" to="-270"/>
    <trip id="110" depart="303.00" from="-315" to="1072"/>
    <trip id="111" depart="303.00" from="-462" to="508"/>
    <trip id="112" depart="305.00" from="-1912" to="462"/>
    <trip id="113" depart="308.00" from="-1916" to="-270"/>
    <trip id="114" depart="313.00" from="-462" to="1907"/>
    <trip id="115" depart="324.00" from="-1912" to="462"/>
    <trip id="117" depart="325.00" from="-1912" to="1916"/>
    <trip id="118" depart="331.00" from="-462" to="1912"/>
    <trip id="119" depart="333.00" from="-1072" to="315"/>
    <trip id="120" depart="336.00" from="-462" to="1916"/>
    <trip id="121" depart="339.00" from="-315" to="1916"/>
    <trip id="122" depart="343.00" from="-1907" to="1072"/>
    <trip id="123" depart="345.00" from="-315" to="1912"/>
    <trip id="124" depart="354.00" from="-315" to="1916"/>
    <trip id="125" depart="354.00" from="-462" to="315"/>
    <trip id="126" depart="357.00" from="-1072" to="1912"/>
    <trip id="127" depart="360.00" from="-462" to="315"/>
    <trip id="128" depart="363.00" from="270" to="1912"/>
    <trip id="129" depart="364.00" from="-1916" to="508"/>
    <trip id="130" depart="365.00" from="-315" to="1916"/>
    <trip id="131" depart="365.00" from="-1912" to="462"/>
    <trip id="132" depart="368.00" from="-462" to="508"/>
    <trip id="133" depart="369.00" from="-508" to="1072"/>
    <trip id="134" depart="374.00" from="-1907" to="1916"/>
    <trip id="135" depart="379.00" from="-1072" to="462"/>
    <trip id="136" depart="383.00" from="-462" to="315"/>
    <trip id="137" depart="384.00" from="-1916" to="462"/>
    <trip id="138" depart="385.00" from="270" to="1916"/>
    <trip id="139" depart="387.00" from="-508" to="462"/>
    <trip id="140" depart="387.00" from="-1916" to="-270"/>
    <trip id="141" depart="388.00" from="-1916" to="1912"/>
    <trip id="142" depart="390.00" from="-1907" to="-270"/>
    <trip id="143" depart="393.00" from="-1916" to="462"/>
    <trip id="144" depart="396.00" from="-1072" to="462"/>
    <trip id="145" depart="400.00" from="-462" to="1907"/>
    <trip id="146" depart="400.00" from="-508" to="462"/>
    <trip id="147" depart="410.00" from="-1912" to="1916"/>
    <trip id="148" depart="411.00" from="-1912" to="1072"/>
    <trip id="149" depart="414.00" from="-1912" to="-270"/>
    <trip id="150" depart="418.00" from="-1072" to="462"/>
    <trip id="151" depart="419.00" from="-462" to="-270"/>
    <trip id="152" depart="419.00" from="-1907" to="1916"/>
    <trip id="153" depart="420.00" from="-1912" to="462"/>
    <trip id="154" depart="420.00" from="-1916" to="1907"/>
    <trip id="156" depart="422.00" from="-1907" to="1916"/>
    <trip id="157" depart="423.00" from="-462" to="-270"/>
    <trip id="159" depart="439.00" from="-315" to="1912"/>
    <trip id="160" depart="440.00" from="-462" to="1916"/>
    <trip id="161" depart="444.00" from="-1072" to="462"/>
    <trip id="162" depart="445.00" from="-1072" to="315"/>
    <trip id="163" depart="446.00" from="-1912" to="315"/>
    <trip id="164" depart="448.00" from="270" to="1916"/>
    <trip id="165" depart="449.00" from="-1916" to="1912"/>
    <trip id="166" depart="450.00" from="-1916" to="1912"/>
    <trip id="167" depart="452.00" from="-1916" to="-270"/>
    <trip id="168" depart="453.00" from="-462" to="1916"/>
    <trip id="169" depart="458.00" from="-1916" to="1907"/>
    <trip id="170" depart="463.00" from="-1907" to="1072"/>
    <trip id="171" depart="465.00" from="270" to="1912"/>
    <trip id="172" depart="468.00" from="-462" to="1912"/>
    <trip id="173" depart="473.00" from="-462" to="1916"/>
    <trip id="174" depart="475.00" from="-315" to="1072"/>
    <trip id="175" depart="478.00" from="270" to="1912"/>
    <trip id="176" depart="481.00" from="-1912" to="1072"/>
    <trip id="177" depart="481.00" from="-1072" to="508"/>
    <trip id="178" depart="488.00" from="270" to="462"/>
    <trip id="179" depart="490.00" from="-462" to="508"/>
    <trip id="180" depart="491.00" from="-1072" to="462"/>
    <trip id="181" depart="493.00" from="-1916" to="508"/>
    <trip id="182" depart="497.00" from="-1916" to="-270"/>
    <trip id="183" depart="498.00" from="-1072" to="1907"/>
    <trip id="184" depart="507.00" from="-1916" to="462"/>
    <trip id="185" depart="507.00" from="-315" to="1912"/>
    <trip id="186" depart="508.00" from="-462" to="508"/>
    <trip id="187" depart="509.00" from="-1916" to="462"/>
    <trip id="188" depart="510.00" from="-1916" to="1907"/>
    <trip id="189" depart="521.00" from="270" to="1912"/>
    <trip id="190" depart="521.00" from="-462" to="508"/>
    <trip id="191" depart="524.00" from="-315" to="1912"/>
    <trip id="192" depart="530.00" from="-1072" to="1907"/>
    <trip id="193" depart="535.00" from="-1916" to="1907"/>
    <trip id="194" depart="538.00" from="-508" to="1072"/>
    <trip id="195" depart="542.00" from="-1907" to="1072"/>
    <trip id="196" depart="552.00" from="-1916" to="508"/>
    <trip id="197" depart="552.00" from="-315" to="462"/>
    <trip id="198" depart="555.00" from="-1072" to="462"/>
    <trip id="199" depart="555.00" from="270" to="1907"/>
    <trip id="200" depart="556.00" from="-508" to="1916"/>
    <trip id="201" depart="561.00" from="-315" to="1072"/>
    <trip id="202" depart="565.00" from="-1907" to="1072"/>
    <trip id="203" depart="566.00" from="-315" to="462"/>
    <trip id="204" depart="570.00" from="270" to="1916"/>
    <trip id="205" depart="573.00" from="270" to="1912"/>
    <trip id="206" depart="574.00" from="-1072" to="315"/>
    <trip id="207" depart="582.00" from="-462" to="315"/>
    <trip id="208" depart="587.00" from="-1912" to="315"/>
    <trip id="209" depart="590.00" from="-462" to="315"/>
    <trip id="210" depart="592.00" from="270" to="1907"/>
    <trip id="211" depart="601.00" from="-1916" to="315"/>
    <trip id="212" depart="603.00" from="270" to="462"/>
    <trip id="213" depart="604.00" from="-1907" to="1072"/>
    <trip id="214" depart="605.00" from="-462" to="315"/>
    <trip id="215" depart="607.00" from="-1912" to="1072"/>
    <trip id="216" depart="610.00" from="270" to="1907"/>
    <trip id="217" depart="611.00" from="-1072" to="1912"/>
    <trip id="218" depart="617.00" from="-1907" to="-270"/>
    <trip id="219" depart="620.00" from="-1912" to="1916"/>
    <trip id="220" depart="621.00" from="-1912" to="315"/>
    <trip id="221" depart="622.00" from="-508" to="1916"/>
    <trip id="222" depart="636.00" from="-508" to="1072"/>
    <trip id="223" depart="636.00" from="-1916" to="1912"/>
    <trip id="224" depart="638.00" from="-1072" to="1912"/>
    <trip id="225" depart="642.00" from="-1916" to="462"/>
    <trip id="226" depart="642.00" from="270" to="1912"/>
    <trip id="227" depart="645.00" from="-462" to="315"/>
    <trip id="228" depart="645.00" from="-1916" to="508"/>
    <trip id="229" depart="646.00" from="-462" to="1907"/>
    <trip id="230" depart="647.00" from="-1916" to="508"/>
    <trip id="231" depart="647.00" from="-1912" to="-270"/>
    <trip id="232" depart="653.00" from="-1907" to="-270"/>
    <trip id="233" depart="653.00" from="-462" to="508"/>
    <trip id="234" depart="656.00" from="-1912" to="462"/>
    <trip id="235" depart="658.00" from="-1916" to="462"/>
    <trip id="236" depart="661.00" from="-508" to="462"/>
    <trip id="237" depart="663.00" from="-1907" to="1072"/>
    <trip id="238" depart="664.00" from="-1072" to="1907"/>
    <trip id="239" depart="665.00" from="-1907" to="1072"/>
    <trip id="240" depart="665.00" from="-1072" to="315"/>
    <trip id="241" depart="671.00" from="-1907" to="1072"/>
    <trip id="242" depart="674.00" from="-1907" to="1072"/>
    <trip id="243" depart="676.00" from="-1912" to="462"/>
    <trip id="244" depart="679.00" from="-508" to="462"/>
    <trip id="246" depart="681.00" from="-462" to="1912"/>
    <trip id="247" depart="684.00" from="-1907" to="-270"/>
    <trip id="248" depart="690.00" from="-1072" to="508"/>
    <trip id="249" depart="691.00" from="-1072" to="1907"/>
    <trip id="250" depart="692.00" from="-462" to="1072"/>
    <trip id="251" depart="693.00" from="-508" to="462"/>
    <trip id="252" depart="701.00" from="270" to="1916"/>
    <trip id="253" depart="702.00" from="-1907" to="1916"/>
    <trip id="254" depart="703.00" from="-1907" to="1072"/>
    <trip id="255" depart="706.00" from="-1916" to="462"/>
    <trip id="256" depart="707.00" from="-1916" to="508"/>
    <trip id="257" depart="708.00" from="270" to="1912"/>
    <trip id="258" depart="710.00" from="-462" to="315"/>
    <trip id="259" depart="710.00" from="270" to="1912"/>
    <trip id="260" depart="713.00" from="-1072" to="315"/>
    <trip id="261" depart="716.00" from="270" to="462"/>
    <trip id="262" depart="720.00" from="-1912" to="-270"/>
    <trip id="263" depart="728.00" from="-315" to="1916"/>
    <trip id="264" depart="735.00" from="-462" to="1916"/>
    <trip id="265" depart="736.00" from="-462" to="508"/>
    <trip id="266" depart="738.00" from="-315" to="1916"/>
    <trip id="267" depart="740.00" from="-315" to="1916"/>
    <trip id="268" depart="742.00" from="270" to="1916"/>
    <trip id="269" depart="742.00" from="-315" to="462"/>
    <trip id="270" depart="747.00" from="-462" to="1907"/>
    <trip id="271" depart="747.00" from="-1916" to="508"/>
    <trip id="272" depart="750.00" from="-315" to="1072"/>
    <trip id="273" depart="759.00" from="-1916" to="1907"/>
    <trip id="274" depart="759.00" from="-1912" to="-270"/>
    <trip id="275" depart="764.00" from="-508" to="1072"/>
    <trip id="276" depart="767.00" from="-1916" to="1907"/>
    <trip id="277" depart="769.00" from="-315" to="462"/>
    <trip id="278" depart="774.00" from="-1907" to="-270"/>
    <trip id="279" depart="777.00" from="270" to="1907"/>
    <trip id="280" depart="777.00" from="-1912" to="1916"/>
    <trip id="281" depart="782.00" from="-1907" to="1072"/>
    <trip id="282" depart="783.00" from="-508" to="462"/>
    <trip id="283" depart="784.00" from="-1072" to="315"/>
    <trip id="284" depart="786.00" from="-462" to="1072"/>
    <trip id="285" depart="789.00" from="-462" to="1907"/>
    <trip id="286" depart="793.00" from="-1912" to="462"/>
    <trip id="287" depart="794.00" from="270" to="1907"/>
    <trip id="288" depart="795.00" from="-1912" to="-270"/>
    <trip id="289" depart="797.00" from="-1072" to="462"/>
    <trip id="290" depart="800.00" from="-1912" to="1916"/>
    <trip id="291" depart="801.00" from="-315" to="1916"/>
    <trip id="292" depart="801.00" from="-1072" to="1912"/>
    <trip id="293" depart="808.00" from="-1916" to="315"/>
    <trip id="294" depart="809.00" from="-1072" to="1912"/>
    <trip id="295" depart="811.00" from="-462" to="1907"/>
    <trip id="296" depart="811.00" from="270" to="1907"/>
    <trip id="297" depart="814.00" from="-508" to="1916"/>
    <trip id="298" depart="816.00" from="-1916" to="462"/>
    <trip id="299" depart="817.00" from="270" to="1912"/>
    <trip id="300" depart="821.00" from="-1916" to="-270"/>
    <trip id="301" depart="822.00" from="-1912" to="462"/>
    <trip id="302" depart="822.00" from="-508" to="462"/>
    <trip id="303" depart="826.00" from="-462" to="508"/>
    <trip id="304" depart="829.00" from="-1072" to="508"/>
    <trip id="305" depart="830.00" from="-1907" to="1916"/>
    <trip id="306" depart="830.00" from="-315" to="1072"/>
    <trip id="307" depart="830.00" from="-1907" to="462"/>
    <trip id="308" depart="835.00" from="-315" to="1916"/>
    <trip id="309" depart="835.00" from="-1072" to="315"/>
    <trip id="310" depart="836.00" from="-315" to="1912"/>
    <trip id="311" depart="839.00" from="-462" to="-270"/>
    <trip id="312" depart="841.00" from="-1072" to="1907"/>
    <trip id="313" depart="846.00" from="-1907" to="462"/>
    <trip id="314" depart="849.00" from="-462" to="1912"/>
    <trip id="315" depart="851.00" from="-1912" to="-270"/>
    <trip id="316" depart="854.00" from="-1916" to="1907"/>
    <trip id="317" depart="857.00" from="-1912" to="315"/>
    <trip id="318" depart="858.00" from="270" to="462"/>
    <trip id="319" depart="862.00" from="-1072" to="1907"/>
    <trip id="320" depart="863.00" from="-1912" to="462"/>
    <trip id="321" depart="868.00" from="-1916" to="462"/>
    <trip id="322" depart="869.00" from="-1916" to="-270"/>
    <trip id="323" depart="871.00" from="-1916" to="315"/>
    <trip id="324" depart="871.00" from="-1916" to="462"/>
    <trip id="325" depart="875.00" from="-1072" to="1907"/>
    <trip id="326" depart="888.00" from="-1912" to="1448"/>
    <trip id="327" depart="890.00" from="-315" to="1916"/>
    <trip id="328" depart="890.00" from="-1916" to="1907"/>
    <trip id="329" depart="891.00" from="-1072" to="462"/>
    <trip id="330" depart="893.00" from="-1907" to="-270"/>
    <trip id="331" depart="898.00" from="-1912" to="1916"/>
    <trip id="332" depart="899.00" from="-508" to="1916"/>
    <trip id="333" depart="902.00" from="-1912" to="315"/>
    <trip id="334" depart="905.00" from="-462" to="-270"/>
    <trip id="335" depart="908.00" from="-315" to="462"/>
    <trip id="336" depart="909.00" from="-462" to="1907"/>
    <trip id="337" depart="915.00" from="-1072" to="1907"/>
    <trip id="338" depart="915.00" from="-1916" to="315"/>
    <trip id="339" depart="923.00" from="-315" to="462"/>
    <trip id="340" depart="923.00" from="-315" to="462"/>
    <trip id="341" depart="926.00" from="-462" to="-270"/>
    <trip id="342" depart="927.00" from="-1907" to="1072"/>
    <trip id="343" depart="934.00" from="-1072" to="315"/>
    <trip id="344" depart="935.00" from="-1072" to="508"/>
    <trip id="345" depart="938.00" from="-508" to="1916"/>
    <trip id="346" depart="938.00" from="-1912" to="1072"/>
    <trip id="347" depart="940.00" from="-315" to="1912"/>
    <trip id="348" depart="943.00" from="-508" to="1916"/>
    <trip id="349" depart="945.00" from="-508" to="1916"/>
    <trip id="350" depart="947.00" from="-1072" to="508"/>
    <trip id="351" depart="955.00" from="-462" to="315"/>
    <trip id="352" depart="956.00" from="-1072" to="1907"/>
    <trip id="353" depart="957.00" from="-1072" to="315"/>
    <trip id="354" depart="958.00" from="-1072" to="508"/>
    <trip id="355" depart="960.00" from="-508" to="462"/>
    <trip id="356" depart="962.00" from="-1912" to="1916"/>
    <trip id="357" depart="966.00" from="-315" to="1072"/>
    <trip id="358" depart="967.00" from="-1072" to="315"/>
    <trip id="359" depart="968.00" from="-1916" to="1907"/>
    <trip id="360" depart="969.00" from="-315" to="1912"/>
    <trip id="361" depart="971.00" from="-1912" to="462"/>
    <trip id="362" depart="971.00" from="-1912" to="-270"/>
    <trip id="363" depart="976.00" from="270" to="1912"/>
    <trip id="364" depart="977.00" from="-1912" to="1916"/>
    <trip id="365" depart="982.00" from="-1912" to="315"/>
    <trip id="366" depart="982.00" from="-462" to="1072"/>
    <trip id="367" depart="985.00" from="-462" to="508"/>
    <trip id="368" depart="987.00" from="-1916" to="-307"/>
    <trip id="369" depart="988.00" from="-1912" to="-270"/>
    <trip id="370" depart="989.00" from="-1916" to="1912"/>
    <trip id="371" depart="989.00" from="-462" to="1916"/>
    <trip id="372" depart="990.00" from="-462" to="1072"/>
    <trip id="373" depart="990.00" from="270" to="1916"/>
    <trip id="374" depart="999.00" from="-1072" to="315"/>
    <trip id="375" depart="1001.00" from="-1916" to="315"/>
    <trip id="376" depart="1006.00" from="-462" to="315"/>
    <trip id="377" depart="1008.00" from="270" to="1907"/>
    <trip id="378" depart="1015.00" from="-508" to="1916"/>
    <trip id="379" depart="1022.00" from="-462" to="1072"/>
    <trip id="380" depart="1027.00" from="-1912" to="462"/>
    <trip id="381" depart="1028.00" from="-1072" to="1912"/>
    <trip id="382" depart="1029.00" from="-1916" to="-270"/>
    <trip id="383" depart="1032.00" from="-1912" to="1072"/>
    <trip id="384" depart="1033.00" from="-315" to="462"/>
    <trip id="385" depart="1038.00" from="270" to="462"/>
    <trip id="386" depart="1042.00" from="-1072" to="1907"/>
    <trip id="387" depart="1043.00" from="-1916" to="508"/>
    <trip id="388" depart="1047.00" from="270" to="1912"/>
    <trip id="389" depart="1047.00" from="-508" to="1072"/>
    <trip id="390" depart="1052.00" from="-462" to="1907"/>
    <trip id="391" depart="1055.00" from="-1912" to="1916"/>
    <trip id="392" depart="1058.00" from="-1072" to="1907"/>
    <trip id="393" depart="1067.00" from="270" to="462"/>
    <trip id="394" depart="1075.00" from="-1907" to="-270"/>
    <trip id="395" depart="1083.00" from="-1912" to="-270"/>
    <trip id="396" depart="1086.00" from="-1072" to="1907"/>
    <trip id="397" depart="1087.00" from="-1916" to="-270"/>
    <trip id="398" depart="1089.00" from="-1907" to="1916"/>
    <trip id="399" depart="1093.00" from="270" to="462"/>
    <trip id="400" depart="1097.00" from="-462" to="508"/>
    <trip id="401" depart="1097.00" from="-1907" to="462"/>
    <trip id="402" depart="1111.00" from="-508" to="1072"/>
    <trip id="403" depart="1118.00" from="-1907" to="1072"/>
    <trip id="404" depart="1121.00" from="270" to="1916"/>
    <trip id="405" depart="1123.00" from="270" to="1912"/>
    <trip id="406" depart="1126.00" from="-1916" to="508"/>
    <trip id="407" depart="1126.00" from="-462" to="315"/>
    <trip id="408" depart="1129.00" from="-1072" to="462"/>
    <trip id="409" depart="1130.00" from="-508" to="1072"/>
    <trip id="410" depart="1132.00" from="-1907" to="1072"/>
    <trip id="411" depart="1135.00" from="-1912" to="315"/>
    <trip id="412" depart="1138.00" from="-1916" to="-270"/>
    <trip id="413" depart="1139.00" from="-1916" to="1907"/>
    <trip id="414" depart="1141.00" from="-1912" to="1072"/>
    <trip id="415" depart="1145.00" from="-508" to="1916"/>
    <trip id="416" depart="1148.00" from="-1912" to="1072"/>
    <trip id="417" depart="1148.00" from="-1072" to="1912"/>
    <trip id="418" depart="1151.00" from="-1912" to="1916"/>
    <trip id="419" depart="1156.00" from="-462" to="315"/>
    <trip id="420" depart="1156.00" from="-462" to="1916"/>
    <trip id="421" depart="1158.00" from="-315" to="1912"/>
    <trip id="422" depart="1162.00" from="-1072" to="1907"/>
    <trip id="423" depart="1162.00" from="-1916" to="315"/>
    <trip id="424" depart="1163.00" from="-1916" to="508"/>
    <trip id="425" depart="1165.00" from="-462" to="1072"/>
    <trip id="426" depart="1165.00" from="-1916" to="1912"/>
    <trip id="427" depart="1165.00" from="-462" to="315"/>
    <trip id="428" depart="1174.00" from="-1072" to="508"/>
    <trip id="429" depart="1175.00" from="-1907" to="462"/>
    <trip id="430" depart="1177.00" from="-1912" to="-270"/>
    <trip id="431" depart="1178.00" from="-1072" to="1912"/>
    <trip id="432" depart="1179.00" from="-1912" to="462"/>
    <trip id="433" depart="1179.00" from="-1907" to="462"/>
    <trip id="434" depart="1182.00" from="-508" to="462"/>
    <trip id="435" depart="1184.00" from="-462" to="-270"/>
    <trip id="436" depart="1187.00" from="-1072" to="462"/>
    <trip id="437" depart="1187.00" from="270" to="462"/>
    <trip id="438" depart="1190.00" from="-462" to="508"/>
    <trip id="439" depart="1191.00" from="-462" to="1907"/>
    <trip id="440" depart="1199.00" from="270" to="1912"/>
    <trip id="441" depart="1202.00" from="-1912" to="1916"/>
    <trip id="442" depart="1209.00" from="-462" to="1912"/>
    <trip id="443" depart="1215.00" from="-508" to="462"/>
    <trip id="444" depart="1215.00" from="-1907" to="-270"/>
    <trip id="445" depart="1217.00" from="-1916" to="462"/>
    <trip id="446" depart="1219.00" from="-1916" to="315"/>
    <trip id="447" depart="1220.00" from="-1916" to="1912"/>
    <trip id="448" depart="1223.00" from="-1907" to="1916"/>
    <trip id="449" depart="1223.00" from="-1916" to="462"/>
    <trip id="450" depart="1224.00" from="-1916" to="315"/>
    <trip id="451" depart="1226.00" from="-1072" to="462"/>
    <trip id="452" depart="1233.00" from="-1916" to="508"/>
    <trip id="453" depart="1234.00" from="-315" to="1912"/>
    <trip id="454" depart="1235.00" from="-1907" to="1448"/>
    <trip id="455" depart="1236.00" from="-315" to="462"/>
    <trip id="456" depart="1238.00" from="-1912" to="1916"/>
    <trip id="457" depart="1241.00" from="-1907" to="1072"/>
    <trip id="458" depart="1241.00" from="-508" to="1072"/>
    <trip id="459" depart="1242.00" from="-1916" to="1912"/>
    <trip id="460" depart="1244.00" from="-1916" to="462"/>
    <trip id="461" depart="1248.00" from="270" to="1912"/>
    <trip id="462" depart="1251.00" from="-1912" to="315"/>
    <trip id="463" depart="1252.00" from="-1907" to="462"/>
    <trip id="464" depart="1258.00" from="-1916" to="462"/>
    <trip id="465" depart="1259.00" from="-1912" to="462"/>
    <trip id="466" depart="1261.00" from="270" to="1907"/>
    <trip id="467" depart="1266.00" from="-508" to="1916"/>
    <trip id="468" depart="1266.00" from="-508" to="462"/>
    <trip id="469" depart="1270.00" from="-508" to="462"/>
    <trip id="470" depart="1278.00" from="270" to="1907"/>
    <trip id="471" depart="1278.00" from="-1907" to="-270"/>
    <trip id="472" depart="1285.00" from="-462" to="508"/>
    <trip id="473" depart="1287.00" from="-462" to="315"/>
    <trip id="474" depart="1288.00" from="-1907" to="462"/>
    <trip id="475" depart="1296.00" from="-462" to="-270"/>
    <trip id="476" depart="1296.00" from="-1912" to="462"/>
    <trip id="477" depart="1300.00" from="-315" to="-1443"/>
    <trip id="478" depart="1303.00" from="-462" to="315"/>
    <trip id="479" depart="1304.00" from="-462" to="1443"/>
    <trip id="480" depart="1309.00" from="-1072" to="1907"/>
    <trip id="481" depart="1311.00" from="-462" to="-270"/>
    <trip id="482" depart="1316.00" from="-1907" to="462"/>
    <trip id="483" depart="1316.00" from="-1072" to="462"/>
    <trip id="484" depart="1318.00" from="-462" to="1072"/>
    <trip id="485" depart="1323.00" from="270" to="1916"/>
    <trip id="486" depart="1323.00" from="-1912" to="315"/>