<?xml version="1.0" encoding="UTF-8"?>

<!-- generated on 2025-03-09 19:55:13.617182 by randomTrips.py v1_19_0+1770-8bb5c24c187
<configuration>
    <net-file value="random_subnetwork_4.net.xml"/>
    <output-trip-file value="random_subnetwork_4_heavy.trips.xml"/>
    <fringe-factor value="100"/>
    <remove-loops value="True"/>
    <validate value="True"/>
    <period value="8.6367"/>
    <random-depart value="True"/>
    <binomial value="4"/>
</configuration>
-->

<!-- generated on 2025-03-09 19:55:13 by Eclipse SUMO duarouter Version v1_19_0+1770-8bb5c24c187
<configuration xmlns:xsi="http://www.w3.org/2001/XMLSchema-instance" xsi:noNamespaceSchemaLocation="http://sumo.dlr.de/xsd/duarouterConfiguration.xsd">

    <input>
        <net-file value="random_subnetwork_4.net.xml"/>
        <route-files value="random_subnetwork_4_heavy.trips.xml"/>
    </input>

    <output>
        <output-file value="random_subnetwork_4_heavy.trips.xml.tmp"/>
        <alternatives-output value="NUL"/>
        <write-trips value="true"/>
    </output>

    <processing>
        <remove-loops value="true"/>
    </processing>

    <time>
        <begin value="0.0"/>
        <end value="3600.0"/>
    </time>

    <report>
        <no-warnings value="true"/>
        <ignore-errors value="true"/>
        <no-step-log value="true"/>
    </report>

</configuration>
-->

<routes xmlns:xsi="http://www.w3.org/2001/XMLSchema-instance" xsi:noNamespaceSchemaLocation="http://sumo.dlr.de/xsd/routes_file.xsd">
    <trip id="0" depart="0.00" from="-2038" to="-833"/>
    <trip id="1" depart="2.00" from="-1559" to="2038"/>
    <trip id="2" depart="3.00" from="833" to="2038"/>
    <trip id="3" depart="23.00" from="-2042" to="2038"/>
    <trip id="4" depart="29.00" from="-2038" to="-833"/>
    <trip id="5" depart="64.00" from="833" to="1559"/>
    <trip id="6" depart="69.00" from="833" to="2038"/>
    <trip id="7" depart="70.00" from="-1559" to="2042"/>
    <trip id="8" depart="77.00" from="-2042" to="1559"/>
    <trip id="9" depart="81.00" from="-1559" to="1559"/>
    <trip id="10" depart="87.00" from="833" to="2038"/>
    <trip id="11" depart="93.00" from="-2038" to="1559"/>
    <trip id="12" depart="97.00" from="-1559" to="1559"/>
    <trip id="13" depart="100.00" from="1561" to="2042"/>
    <trip id="14" depart="113.00" from="-2038" to="2042"/>
    <trip id="15" depart="117.00" from="-2038" to="2038"/>
    <trip id="16" depart="118.00" from="-2042" to="-833"/>
    <trip id="17" depart="121.00" from="-2042" to="2042"/>
    <trip id="18" depart="123.00" from="-1559" to="-833"/>
    <trip id="19" depart="126.00" from="-2038" to="2038"/>
    <trip id="20" depart="137.00" from="833" to="-833"/>
    <trip id="21" depart="139.00" from="833" to="-833"/>
    <trip id="22" depart="148.00" from="-2042" to="1559"/>
    <trip id="23" depart="159.00" from="-2038" to="2038"/>
    <trip id="24" depart="208.00" from="833" to="2042"/>
    <trip id="25" depart="226.00" from="-2042" to="1559"/>
    <trip id="26" depart="228.00" from="833" to="2038"/>
    <trip id="27" depart="239.00" from="833" to="-833"/>
    <trip id="28" depart="242.00" from="833" to="-833"/>
    <trip id="29" depart="243.00" from="-1559" to="2042"/>
    <trip id="30" depart="266.00" from="833" to="2042"/>
    <trip id="31" depart="267.00" from="833" to="2038"/>
    <trip id="32" depart="276.00" from="-2038" to="-833"/>
    <trip id="33" depart="277.00" from="-2042" to="-833"/>
    <trip id="34" depart="279.00" from="833" to="2042"/>
    <trip id="35" depart="280.00" from="-2038" to="2042"/>
    <trip id="36" depart="325.00" from="-1559" to="1559"/>
    <trip id="37" depart="326.00" from="833" to="2042"/>
    <trip id="38" depart="328.00" from="-1559" to="1559"/>
    <trip id="39" depart="332.00" from="-2042" to="-833"/>
    <trip id="40" depart="337.00" from="833" to="1559"/>
    <trip id="41" depart="368.00" from="-2042" to="1559"/>
    <trip id="42" depart="381.00" from="-1559" to="2038"/>
    <trip id="43" depart="392.00" from="833" to="2038"/>
    <trip id="44" depart="408.00" from="-2038" to="2042"/>
    <trip id="45" depart="412.00" from="-2038" to="-833"/>
    <trip id="46" depart="428.00" from="-2042" to="2042"/>
    <trip id="47" depart="435.00" from="-2042" to="-833"/>
    <trip id="48" depart="444.00" from="-2042" to="2038"/>
    <trip id="49" depart="465.00" from="-1559" to="1559"/>
    <trip id="50" depart="469.00" from="-1559" to="-833"/>
    <trip id="51" depart="487.00" from="833" to="2042"/>
    <trip id="52" depart="502.00" from="-2042" to="1559"/>
    <trip id="53" depart="503.00" from="-2042" to="-833"/>
    <trip id="54" depart="504.00" from="833" to="2038"/>
    <trip id="55" depart="510.00" from="-1559" to="1559"/>
    <trip id="56" depart="527.00" from="-2038" to="1559"/>
    <trip id="57" depart="529.00" from="-2038" to="-833"/>
    <trip id="58" depart="553.00" from="-2038" to="2038"/>
    <trip id="59" depart="556.00" from="-1559" to="1559"/>
    <trip id="60" depart="576.00" from="-1559" to="2042"/>
    <trip id="61" depart="598.00" from="833" to="2038"/>
    <trip id="62" depart="604.00" from="833" to="-833"/>
    <trip id="63" depart="609.00" from="-2038" to="-833"/>
    <trip id="64" depart="610.00" from="-2042" to="2042"/>
    <trip id="65" depart="614.00" from="-2042" to="1559"/>
    <trip id="66" depart="626.00" from="-1559" to="1559"/>
    <trip id="67" depart="650.00" from="-1559" to="2038"/>
    <trip id="68" depart="653.00" from="-2038" to="-833"/>
    <trip id="69" depart="654.00" from="-2042" to="2042"/>
    <trip id="70" depart="671.00" from="833" to="2042"/>
    <trip id="71" depart="673.00" from="-1559" to="2042"/>
    <trip id="72" depart="691.00" from="-2042" to="2042"/>
    <trip id="73" depart="694.00" from="833" to="-833"/>
    <trip id="74" depart="696.00" from="-2042" to="2042"/>
    <trip id="75" depart="710.00" from="-2038" to="2038"/>
    <trip id="76" depart="722.00" from="-1559" to="1559"/>
    <trip id="77" depart="746.00" from="833" to="1559"/>
    <trip id="78" depart="762.00" from="833" to="2042"/>
    <trip id="79" depart="762.00" from="833" to="2038"/>
    <trip id="80" depart="762.00" from="1561" to="2042"/>
    <trip id="81" depart="787.00" from="-2038" to="2042"/>
    <trip id="82" depart="791.00" from="-2038" to="2042"/>
    <trip id="83" depart="801.00" from="-2042" to="1559"/>
    <trip id="84" depart="809.00" from="-2042" to="2042"/>
    <trip id="85" depart="822.00" from="-2042" to="2042"/>
    <trip id="86" depart="836.00" from="-1559" to="2038"/>
    <trip id="87" depart="862.00" from="-1559" to="2038"/>
    <trip id="88" depart="869.00" from="1561" to="2038"/>
    <trip id="89" depart="883.00" from="-2042" to="1559"/>
    <trip id="90" depart="889.00" from="-1559" to="2038"/>
    <trip id="91" depart="896.00" from="-2042" to="2038"/>
    <trip id="92" depart="904.00" from="-2042" to="2038"/>
    <trip id="93" depart="914.00" from="-1559" to="-833"/>
    <trip id="94" depart="919.00" from="-2042" to="-833"/>
    <trip id="95" depart="940.00" from="-1559" to="2038"/>
    <trip id="96" depart="943.00" from="-2042" to="2038"/>
    <trip id="97" depart="959.00" from="-2042" to="2038"/>
    <trip id="98" depart="968.00" from="-1559" to="-833"/>
    <trip id="99" depart="975.00" from="-1559" to="2042"/>
    <trip id="100" depart="985.00" from="-1559" to="-833"/>
    <trip id="101" depart="987.00" from="833" to="-833"/>
    <trip id="102" depart="1001.00" from="-1559" to="2038"/>
    <trip id="103" depart="1013.00" from="-1559" to="2042"/>
    <trip id="104" depart="1022.00" from="-2042" to="2038"/>
    <trip id="105" depart="1025.00" from="-2038" to="2042"/>
    <trip id="106" depart="1028.00" from="-2042" to="2042"/>
    <trip id="107" depart="1034.00" from="833" to="2042"/>
    <trip id="108" depart="1034.00" from="833" to="2042"/>
    <trip id="109" depart="1035.00" from="-2038" to="1559"/>
    <trip id="110" depart="1035.00" from="-2038" to="1559"/>
    <trip id="111" depart="1042.00" from="-1559" to="2038"/>
    <trip id="112" depart="1056.00" from="-1559" to="2042"/>
    <trip id="113" depart="1067.00" from="-2042" to="1559"/>
    <trip id="114" depart="1068.00" from="833" to="2042"/>
    <trip id="115" depart="1092.00" from="833" to="2038"/>
    <trip id="116" depart="1102.00" from="833" to="1559"/>
    <trip id="117" depart="1113.00" from="-2038" to="2042"/>
    <trip id="118" depart="1117.00" from="-2042" to="-833"/>
    <trip id="119" depart="1118.00" from="-1559" to="2038"/>
    <trip id="120" depart="1120.00" from="-2042" to="2038"/>
    <trip id="121" depart="1122.00" from="-2038" to="1559"/>
    <trip id="122" depart="1123.00" from="833" to="2038"/>
    <trip id="123" depart="1126.00" from="-1559" to="2038"/>
    <trip id="124" depart="1147.00" from="-2038" to="1559"/>
    <trip id="125" depart="1171.00" from="833" to="-833"/>
    <trip id="126" depart="1189.00" from="-1559" to="2038"/>
    <trip id="127" depart="1191.00" from="-1559" to="1559"/>
    <trip id="128" depart="1192.00" from="-2042" to="1559"/>
    <trip id="129" depart="1206.00" from="-2038" to="1559"/>
    <trip id="130" depart="1210.00" from="833" to="2038"/>
    <trip id="131" depart="1215.00" from="-2042" to="2038"/>
    <trip id="132" depart="1241.00" from="-1559" to="-833"/>
    <trip id="133" depart="1244.00" from="833" to="1559"/>
    <trip id="134" depart="1252.00" from="-2042" to="1559"/>
    <trip id="135" depart="1271.00" from="-1559" to="-833"/>
    <trip id="136" depart="1280.00" from="833" to="1559"/>
    <trip id="137" depart="1287.00" from="-1559" to="-833"/>
    <trip id="138" depart="1288.00" from="-1559" to="2042"/>
    <trip id="139" depart="1305.00" from="833" to="2042"/>
    <trip id="140" depart="1330.00" from="-2038" to="-833"/>
    <trip id="141" depart="1335.00" from="-1559" to="-833"/>
    <trip id="142" depart="1357.00" from="833" to="-833"/>
    <trip id="143" depart="1360.00" from="-2042" to="2042"/>
    <trip id="144" depart="1363.00" from="-2038" to="2042"/>
    <trip id="145" depart="1397.00" from="-2042" to="2042"/>
    <trip id="146" depart="1404.00" from="-2042" to="1559"/>
    <trip id="147" depart="1418.00" from="1085" to="1559"/>
    <trip id="148" depart="1431.00" from="-2042" to="1559"/>
    <trip id="149" depart="1438.00" from="833" to="-833"/>
    <trip id="150" depart="1448.00" from="-1559" to="-833"/>
    <trip id="151" depart="1482.00" from="-1559" to="2042"/>
    <trip id="152" depart="1482.00" from="833" to="1559"/>
    <trip id="153" depart="1486.00" from="-2038" to="1559"/>
    <trip id="154" depart="1499.00" from="-2042" to="2042"/>
    <trip id="155" depart="1511.00" from="833" to="-833"/>
    <trip id="156" depart="1522.00" from="833" to="2038"/>
    <trip id="157" depart="1534.00" from="-1559" to="2038"/>
    <trip id="158" depart="1553.00" from="-1559" to="1559"/>
    <trip id="159" depart="1575.00" from="-2042" to="2038"/>
    <trip id="160" depart="1578.00" from="833" to="2038"/>
    <trip id="161" depart="1603.00" from="-1559" to="-833"/>
    <trip id="162" depart="1607.00" from="-1559" to="-833"/>
    <trip id="163" depart="1610.00" from="-1559" to="-833"/>
    <trip id="164" depart="1612.00" from="-2042" to="2038"/>
    <trip id="165" depart="1619.00" from="-2038" to="-833"/>
    <trip id="166" depart="1627.00" from="833" to="1559"/>
    <trip id="167" depart="1645.00" from="833" to="2042"/>
    <trip id="168" depart="1650.00" from="-2038" to="2038"/>
    <trip id="169" depart="1657.00" from="833" to="2038"/>
    <trip id="170" depart="1691.00" from="833" to="-833"/>
    <trip id="171" depart="1693.00" from="-2038" to="1559"/>
    <trip id="172" depart="1697.00" from="-1559" to="1559"/>
    <trip id="173" depart="1707.00" from="-2038" to="2042"/>
    <trip id="174" depart="1707.00" from="833" to="1559"/>
    <trip id="175" depart="1715.00" from="-2042" to="2038"/>
    <trip id="176" depart="1715.00" from="-2038" to="2042"/>
    <trip id="177" depart="1721.00" from="-2038" to="2042"/>
    <trip id="178" depart="1721.00" from="-2038" to="2042"/>
    <trip id="179" depart="1736.00" from="-1559" to="-833"/>
    <trip id="180" depart="1736.00" from="-2042" to="2042"/>
    <trip id="181" depart="1748.00" from="-2038" to="2042"/>
    <trip id="182" depart="1756.00" from="-2042" to="2038"/>
    <trip id="183" depart="1763.00" from="-1559" to="-833"/>
    <trip id="184" depart="1769.00" from="833" to="2042"/>
    <trip id="185" depart="1770.00" from="-2042" to="1559"/>
    <trip id="186" depart="1796.00" from="-2038" to="2042"/>
    <trip id="187" depart="1804.00" from="833" to="2042"/>
    <trip id="188" depart="1806.00" from="833" to="2042"/>
    <trip id="189" depart="1819.00" from="-1559" to="-833"/>
    <trip id="190" depart="1833.00" from="-1559" to="2042"/>
    <trip id="191" depart="1836.00" from="-1559" to="1559"/>
    <trip id="192" depart="1841.00" from="833" to="2042"/>
    <trip id="193" depart="1864.00" from="833" to="1559"/>
    <trip id="194" depart="1867.00" from="833" to="-833"/>
    <trip id="195" depart="1875.00" from="-2038" to="2042"/>
    <trip id="196" depart="1879.00" from="-2042" to="2038"/>
    <trip id="197" depart="1889.00" from="833" to="2038"/>
    <trip id="198" depart="1896.00" from="-1559" to="2038"/>
    <trip id="199" depart="1904.00" from="-2042" to="2042"/>
    <trip id="200" depart="1905.00" from="-2042" to="2042"/>
    <trip id="201" depart="1914.00" from="-2038" to="-833"/>
    <trip id="202" depart="1934.00" from="-1559" to="2038"/>
    <trip id="203" depart="1953.00" from="-2042" to="2038"/>
    <trip id="204" depart="1963.00" from="-2042" to="2038"/>
    <trip id="205" depart="1966.00" from="-2042" to="2038"/>
    <trip id="206" depart="1974.00" from="-2038" to="2042"/>
    <trip id="207" depart="1985.00" from="-2042" to="-833"/>
    <trip id="208" depart="1988.00" from="-2038" to="2042"/>
    <trip id="209" depart="1995.00" from="-2042" to="-833"/>
    <trip id="210" depart="2018.00" from="833" to="-833"/>
    <trip id="211" depart="2031.00" from="-1559" to="1559"/>
    <trip id="212" depart="2047.00" from="-2042" to="2042"/>
    <trip id="213" depart="2058.00" from="-2042" to="2038"/>
    <trip id="214" depart="2068.00" from="-2038" to="2038"/>
    <trip id="215" depart="2080.00" from="-1559" to="-833"/>
    <trip id="216" depart="2083.00" from="833" to="2042"/>
    <trip id="217" depart="2085.00" from="833" to="2042"/>
    <trip id="218" depart="2091.00" from="-2038" to="-833"/>
    <trip id="219" depart="2100.00" from="833" to="-833"/>
    <trip id="220" depart="2109.00" from="833" to="-833"/>
    <trip id="221" depart="2114.00" from="833" to="1559"/>
    <trip id="222" depart="2121.00" from="833" to="2038"/>
    <trip id="223" depart="2129.00" from="-2038" to="2038"/>
    <trip id="224" depart="2133.00" from="-2038" to="1559"/>
    <trip id="225" depart="2156.00" from="833" to="1559"/>
    <trip id="226" depart="2173.00" from="833" to="2038"/>
    <trip id="227" depart="2177.00" from="-2038" to="2042"/>
    <trip id="228" depart="2181.00" from="833" to="-833"/>
    <trip id="229" depart="2194.00" from="-2038" to="-833"/>
    <trip id="230" depart="2197.00" from="-1559" to="1559"/>
    <trip id="231" depart="2206.00" from="-2042" to="2042"/>
    <trip id="232" depart="2214.00" from="-1559" to="2042"/>
    <trip id="233" depart="2216.00" from="-1559" to="2038"/>
    <trip id="234" depart="2220.00" from="-2042" to="-833"/>
    <trip id="235" depart="2235.00" from="-2038" to="1559"/>
    <trip id="236" depart="2250.00" from="-1559" to="1559"/>
    <trip id="237" depart="2262.00" from="-1559" to="2042"/>
    <trip id="238" depart="2270.00" from="-2042" to="1559"/>
    <trip id="239" depart="2284.00" from="-2038" to="1559"/>
    <trip id="240" depart="2291.00" from="-2038" to="2038"/>
    <trip id="241" depart="2293.00" from="833" to="2042"/>
    <trip id="242" depart="2304.00" from="-1559" to="1559"/>
    <trip id="243" depart="2306.00" from="-1561" to="1559"/>
    <trip id="244" depart="2318.00" from="-2042" to="2042"/>
    <trip id="245" depart="2321.00" from="833" to="2042"/>
    <trip id="246" depart="2328.00" from="-2038" to="2038"/>
    <trip id="247" depart="2328.00" from="-2042" to="-833"/>
    <trip id="248" depart="2337.00" from="-2038" to="2038"/>
    <trip id="249" depart="2338.00" from="-2038" to="2038"/>
    <trip id="250" depart="2380.00" from="-1559" to="2042"/>
    <trip id="251" depart="2387.00" from="-2042" to="2042"/>
    <trip id="252" depart="2404.00" from="-2042" to="2042"/>
    <trip id="253" depart="2411.00" from="833" to="2042"/>
    <trip id="254" depart="2430.00" from="-2042" to="2042"/>
    <trip id="255" depart="2447.00" from="-1559" to="1559"/>
    <trip id="256" depart="2468.00" from="833" to="2042"/>
    <trip id="257" depart="2468.00" from="833" to="-833"/>
    <trip id="258" depart="2478.00" from="-1559" to="1559"/>
    <trip id="259" depart="2482.00" from="-1559" to="2038"/>
    <trip id="260" depart="2498.00" from="-2042" to="2042"/>
    <trip id="261" depart="2503.00" from="833" to="-833"/>
    <trip id="262" depart="2508.00" from="833" to="2038"/>
    <trip id="263" depart="2510.00" from="-2038" to="-833"/>
    <trip id="264" depart="2513.00" from="-2038" to="1559"/>
    <trip id="265" depart="2522.00" from="-2042" to="2042"/>
    <trip id="266" depart="2535.00" from="-2038" to="-833"/>
    <trip id="267" depart="2555.00" from="-2038" to="1559"/>
    <trip id="268" depart="2557.00" from="-2038" to="2038"/>
    <trip id="269" depart="2558.00" from="-2038" to="-833"/>
    <trip id="270" depart="2564.00" from="833" to="-833"/>
    <trip id="271" depart="2567.00" from="833" to="2042"/>
    <trip id="272" depart="2573.00" from="-2038" to="1559"/>
    <trip id="273" depart="2592.00" from="-2038" to="1559"/>
    <trip id="274" depart="2593.00" from="833" to="1559"/>
    <trip id="275" depart="2598.00" from="-2042" to="2042"/>
    <trip id="276" depart="2602.00" from="-1559" to="2042"/>
    <trip id="277" depart="2619.00" from="-2038" to="2038"/>
    <trip id="278" depart="2630.00" from="-2038" to="2038"/>
    <trip id="279" depart="2638.00" from="833" to="1559"/>
    <trip id="280" depart="2644.00" from="-2038" to="-833"/>
    <trip id="281" depart="2646.00" from="-2038" to="-833"/>
    <trip id="282" depart="2648.00" from="-2038" to="1559"/>
    <trip id="283" depart="2655.00" from="833" to="2038"/>
    <trip id="284" depart="2677.00" from="-1559" to="2038"/>
    <trip id="285" depart="2680.00" from="-2038" to="2038"/>
    <trip id="286" depart="2694.00" from="-1559" to="1559"/>
    <trip id="287" depart="2699.00" from="833" to="1559"/>
    <trip id="288" depart="2717.00" from="833" to="2038"/>
    <trip id="289" depart="2734.00" from="-2042" to="-833"/>
    <trip id="290" depart="2746.00" from="833" to="-833"/>
    <trip id="291" depart="2750.00" from="-1559" to="1559"/>
    <trip id="292" depart="2752.00" from="-2038" to="-833"/>
    <trip id="293" depart="2760.00" from="-2042" to="-833"/>
    <trip id="294" depart="2761.00" from="-1559" to="1559"/>
    <trip id="295" depart="2765.00" from="-2042" to="2042"/>
    <trip id="296" depart="2776.00" from="833" to="1559"/>
    <trip id="297" depart="2791.00" from="833" to="-833"/>
    <trip id="298" depart="2817.00" from="-2042" to="1559"/>
    <trip id="299" depart="2824.00" from="1561" to="2038"/>
    <trip id="300" depart="2832.00" from="-1559" to="1559"/>
    <trip id="301" depart="2853.00" from="-2042" to="-833"/>
    <trip id="302" depart="2874.00" from="-1559" to="-833"/>
    <trip id="303" depart="2894.00" from="-2042" to="2038"/>
    <trip id="304" depart="2903.00" from="-2042" to="2042"/>
    <trip id="305" depart="2905.00" from="-2038" to="-833"/>
    <trip id="306" depart="2923.00" from="-1559" to="2038"/>
    <trip id="307" depart="2933.00" from="833" to="-833"/>
    <trip id="308" depart="2933.00" from="-1559" to="2042"/>
    <trip id="309" depart="2969.00" from="833" to="-833"/>
    <trip id="310" depart="2986.00" from="833" to="-833"/>
    <trip id="311" depart="2995.00" from="-2042" to="2042"/>
    <trip id="312" depart="3002.00" from="833" to="1559"/>
    <trip id="313" depart="3008.00" from="-2038" to="2042"/>
    <trip id="314" depart="3016.00" from="-1559" to="2042"/>
    <trip id="315" depart="3020.00" from="833" to="-833"/>
    <trip id="316" depart="3024.00" from="-1559" to="-833"/>
    <trip id="317" depart="3032.00" from="-2042" to="-833"/>
    <trip id="318" depart="3040.00" from="-1559" to="1559"/>
    <trip id="319" depart="3041.00" from="833" to="2038"/>
    <trip id="320" depart="3043.00" from="-2038" to="1559"/>
    <trip id="321" depart="3048.00" from="-2038" to="-833"/>
    <trip id="322" depart="3057.00" from="-2042" to="-833"/>
    <trip id="323" depart="3067.00" from="-2038" to="-833"/>
    <trip id="324" depart="3067.00" from="-2042" to="2042"/>
    <trip id="325" depart="3086.00" from="833" to="1559"/>
    <trip id="326" depart="3088.00" from="-2042" to="2038"/>
    <trip id="327" depart="3093.00" from="-2042" to="2038"/>
    <trip id="328" depart="3103.00" from="-1559" to="-833"/>
    <trip id="329" depart="3103.00" from="-2038" to="-1085"/>
    <trip id="330" depart="3111.00" from="-2042" to="-833"/>
    <trip id="331" depart="3114.00" from="833" to="2038"/>
    <trip id="332" depart="3137.00" from="833" to="1561"/>
    <trip id="333" depart="3140.00" from="-1559" to="-833"/>
    <trip id="334" depart="3148.00" from="-1559" to="1559"/>
    <trip id="335" depart="3152.00" from="-1559" to="2042"/>
    <trip id="336" depart="3158.00" from="833" to="2042"/>
    <trip id="337" depart="3163.00" from="-2042" to="2038"/>
    <trip id="338" depart="3171.00" from="-1559" to="2042"/>
    <trip id="339" depart="3172.00" from="833" to="-833"/>
    <trip id="340" depart="3180.00" from="-2042" to="2042"/>
    <trip id="341" depart="3204.00" from="-1559" to="2042"/>
    <trip id="342" depart="3211.00" from="-2038" to="2038"/>
    <trip id="343" depart="3229.00" from="833" to="-833"/>
    <trip id="344" depart="3245.00" from="833" to="2042"/>
    <trip id="345" depart="3246.00" from="-2042" to="-833"/>
    <trip id="346" depart="3250.00" from="-2038" to="2042"/>
    <trip id="347" depart="3257.00" from="-2038" to="2038"/>
    <trip id="348" depart="3259.00" from="-1559" to="1559"/>
    <trip id="349" depart="3267.00" from="-1559" to="2038"/>
    <trip id="350" depart="3267.00" from="-2038" to="2042"/>
    <trip id="351" depart="3277.00" from="-1559" to="2042"/>
    <trip id="352" depart="3297.00" from="-2042" to="1559"/>
    <trip id="353" depart="3299.00" from="-1559" to="-833"/>
    <trip id="354" depart="3322.00" from="833" to="2042"/>
    <trip id="355" depart="3326.00" from="-2038" to="2042"/>
    <trip id="356" depart="3345.00" from="-1559" to="2038"/>
    <trip id="357" depart="3349.00" from="-1559" to="2042"/>
    <trip id="358" depart="3363.00" from="-2038" to="2042"/>
    <trip id="359" depart="3373.00" from="833" to="1559"/>
    <trip id="360" depart="3386.00" from="-1559" to="2038"/>
    <trip id="361" depart="3388.00" from="-2042" to="1559"/>
    <trip id="362" depart="3398.00" from="-1559" to="-833"/>
    <trip id="363" depart="3417.00" from="833" to="1559"/>
    <trip id="364" depart="3418.00" from="-1559" to="-833"/>
    <trip id="365" depart="3435.00" from="-2042" to="2042"/>
    <trip id="366" depart="3465.00" from="-1559" to="2038"/>
    <trip id="367" depart="3465.00" from="833" to="-833"/>
    <trip id="368" depart="3475.00" from="-2042" to="-1561"/>
    <trip id="369" depart="3482.00" from="-2042" to="2038"/>
    <trip id="370" depart="3485.00" from="-2042" to="1559"/>
    <trip id="371" depart="3498.00" from="-1559" to="1559"/>
    <trip id="372" depart="3515.00" from="-1559" to="2042"/>
    <trip id="373" depart="3520.00" from="-2042" to="-833"/>
    <trip id="374" depart="3532.00" from="-1559" to="-833"/>
    <trip id="375" depart="3534.00" from="-1559" to="1559"/>
    <trip id="376" depart="3545.00" from="833" to="2038"/>
    <trip id="377" depart="3559.00" from="-2042" to="-833"/>
    <trip id="378" depart="3564.00" from="833" to="1559"/>
    <trip id="379" depart="3564.00" from="-2038" to="1559"/>
    <trip id="380" depart="3575.00" from="-2042" to="2038"/>
    <trip id="381" depart="3579.00" from="833" to="1559"/>
    <trip id="382" depart="3583.00" from="-2038" to="1559"/>
    <trip id="383" depart="3589.00" from="833" to="2038"/>
</routes>
