<?xml version="1.0" encoding="UTF-8"?>

<!-- generated on 2025-03-09 19:55:44.035109 by randomTrips.py v1_19_0+1770-8bb5c24c187
<configuration>
    <net-file value="random_subnetwork_5.net.xml"/>
    <output-trip-file value="random_subnetwork_5_light.trips.xml"/>
    <fringe-factor value="100"/>
    <min-distance value="800.0"/>
    <remove-loops value="True"/>
    <validate value="True"/>
    <period value="2.7724"/>
    <random-depart value="True"/>
    <binomial value="4"/>
</configuration>
-->

<!-- generated on 2025-03-09 19:55:44 by Eclipse SUMO duarouter Version v1_19_0+1770-8bb5c24c187
<configuration xmlns:xsi="http://www.w3.org/2001/XMLSchema-instance" xsi:noNamespaceSchemaLocation="http://sumo.dlr.de/xsd/duarouterConfiguration.xsd">

    <input>
        <net-file value="random_subnetwork_5.net.xml"/>
        <route-files value="random_subnetwork_5_light.trips.xml"/>
    </input>

    <output>
        <output-file value="random_subnetwork_5_light.trips.xml.tmp"/>
        <alternatives-output value="NUL"/>
        <write-trips value="true"/>
    </output>

    <processing>
        <remove-loops value="true"/>
    </processing>

    <time>
        <begin value="0.0"/>
        <end value="3600.0"/>
    </time>

    <report>
        <no-warnings value="true"/>
        <ignore-errors value="true"/>
        <no-step-log value="true"/>
    </report>

</duarouterConfiguration>
-->

<routes xmlns:xsi="http://www.w3.org/2001/XMLSchema-instance" xsi:noNamespaceSchemaLocation="http://sumo.dlr.de/xsd/routes_file.xsd">
    <trip id="0" depart="0.00" from="-1104" to="1102"/>
    <trip id="1" depart="0.00" from="-531" to="1677"/>
    <trip id="2" depart="1.00" from="-939" to="330"/>
    <trip id="3" depart="5.00" from="-1568" to="1102"/>
    <trip id="4" depart="8.00" from="-1690" to="1102"/>
    <trip id="5" depart="10.00" from="-1568" to="-275"/>
    <trip id="6" depart="25.00" from="-939" to="1102"/>
    <trip id="7" depart="27.00" from="-1104" to="531"/>
    <trip id="8" depart="27.00" from="275" to="1677"/>
    <trip id="9" depart="29.00" from="-819" to="1104"/>
    <trip id="10" depart="31.00" from="-1102" to="1104"/>
    <trip id="11" depart="33.00" from="275" to="1677"/>
    <trip id="12" depart="36.00" from="-1104" to="1568"/>
    <trip id="13" depart="37.00" from="-1104" to="1568"/>
    <trip id="14" depart="38.00" from="-819" to="531"/>
    <trip id="15" depart="44.00" from="-1568" to="531"/>
    <trip id="16" depart="45.00" from="-1568" to="1690"/>
    <trip id="17" depart="45.00" from="-1102" to="1568"/>
    <trip id="18" depart="46.00" from="-1690" to="949"/>
    <trip id="19" depart="47.00" from="-1102" to="1085"/>
    <trip id="20" depart="48.00" from="-1568" to="1690"/>
    <trip id="21" depart="53.00" from="-939" to="1085"/>
    <trip id="22" depart="54.00" from="-819" to="1568"/>
    <trip id="23" depart="57.00" from="-1690" to="1102"/>
    <trip id="24" depart="62.00" from="-1104" to="1102"/>
    <trip id="25" depart="78.00" from="275" to="939"/>
    <trip id="26" depart="81.00" from="-1677" to="1102"/>
    <trip id="27" depart="87.00" from="-1690" to="1568"/>
    <trip id="28" depart="88.00" from="-1677" to="1085"/>
    <trip id="29" depart="90.00" from="275" to="819"/>
    <trip id="30" depart="91.00" from="-819" to="1102"/>
    <trip id="31" depart="92.00" from="-939" to="1085"/>
    <trip id="32" depart="93.00" from="-819" to="1677"/>
    <trip id="33" depart="101.00" from="275" to="819"/>
    <trip id="34" depart="102.00" from="-1677" to="1085"/>
    <trip id="35" depart="102.00" from="-819" to="1102"/>
    <trip id="36" depart="105.00" from="-1568" to="1102"/>
    <trip id="37" depart="105.00" from="-1568" to="531"/>
    <trip id="38" depart="106.00" from="275" to="819"/>
    <trip id="39" depart="106.00" from="-1568" to="819"/>
    <trip id="40" depart="124.00" from="-1085" to="1568"/>
    <trip id="41" depart="124.00" from="275" to="819"/>
    <trip id="42" depart="125.00" from="-1085" to="1102"/>
    <trip id="43" depart="127.00" from="-1690" to="1102"/>
    <trip id="44" depart="129.00" from="-833" to="1104"/>
    <trip id="45" depart="136.00" from="-1568" to="1104"/>
    <trip id="46" depart="141.00" from="-1690" to="1104"/>
    <trip id="47" depart="146.00" from="-819" to="1568"/>
    <trip id="48" depart="150.00" from="275" to="1677"/>
    <trip id="49" depart="156.00" from="-819" to="531"/>
    <trip id="50" depart="157.00" from="275" to="949"/>
    <trip id="51" depart="158.00" from="-1568" to="1085"/>
    <trip id="52" depart="164.00" from="-1690" to="939"/>
    <trip id="53" depart="167.00" from="275" to="1677"/>
    <trip id="54" depart="170.00" from="-819" to="1104"/>
    <trip id="55" depart="176.00" from="-1677" to="531"/>
    <trip id="56" depart="178.00" from="-1085" to="1102"/>
    <trip id="57" depart="179.00" from="-1104" to="330"/>
    <trip id="58" depart="179.00" from="-1677" to="1102"/>
    <trip id="59" depart="186.00" from="275" to="939"/>
    <trip id="60" depart="191.00" from="-1677" to="819"/>
    <trip id="61" depart="191.00" from="-1690" to="1104"/>
    <trip id="62" depart="192.00" from="-1690" to="-275"/>
    <trip id="63" depart="192.00" from="-939" to="1690"/>
    <trip id="64" depart="194.00" from="-1102" to="1568"/>
    <trip id="65" depart="196.00" from="275" to="1104"/>
    <trip id="66" depart="199.00" from="-1104" to="939"/>
    <trip id="67" depart="201.00" from="-1568" to="1104"/>
    <trip id="68" depart="201.00" from="-1568" to="-275"/>
    <trip id="69" depart="211.00" from="-1690" to="1677"/>
    <trip id="70" depart="212.00" from="-1102" to="1568"/>
    <trip id="71" depart="215.00" from="-531" to="1104"/>
    <trip id="72" depart="220.00" from="-1102" to="819"/>
    <trip id="73" depart="221.00" from="-819" to="1102"/>
    <trip id="74" depart="228.00" from="-819" to="531"/>
    <trip id="75" depart="231.00" from="275" to="1085"/>
    <trip id="76" depart="233.00" from="-1677" to="1085"/>
    <trip id="77" depart="233.00" from="275" to="1568"/>
    <trip id="78" depart="234.00" from="-531" to="1568"/>
    <trip id="79" depart="239.00" from="-1085" to="1102"/>
    <trip id="80" depart="244.00" from="-939" to="1102"/>
    <trip id="81" depart="249.00" from="-1568" to="1690"/>
    <trip id="82" depart="250.00" from="-1677" to="1102"/>
    <trip id="83" depart="250.00" from="-531" to="819"/>
    <trip id="84" depart="256.00" from="-1677" to="1568"/>
    <trip id="85" depart="257.00" from="-1102" to="819"/>
    <trip id="86" depart="257.00" from="-1085" to="939"/>
    <trip id="87" depart="259.00" from="-1104" to="1085"/>
    <trip id="88" depart="259.00" from="-531" to="1102"/>
    <trip id="89" depart="264.00" from="-819" to="939"/>
    <trip id="90" depart="265.00" from="275" to="1085"/>
    <trip id="91" depart="266.00" from="-1690" to="939"/>
    <trip id="92" depart="269.00" from="-531" to="939"/>
    <trip id="93" depart="271.00" from="-1568" to="531"/>
    <trip id="94" depart="274.00" from="275" to="1085"/>
    <trip id="95" depart="276.00" from="-1568" to="1104"/>
    <trip id="96" depart="285.00" from="-939" to="1102"/>
    <trip id="97" depart="288.00" from="-1102" to="819"/>
    <trip id="98" depart="289.00" from="-1568" to="1677"/>
    <trip id="99" depart="291.00" from="-819" to="531"/>
    <trip id="100" depart="291.00" from="275" to="1690"/>
    <trip id="101" depart="291.00" from="-1104" to="819"/>
    <trip id="102" depart="296.00" from="-819" to="1677"/>
    <trip id="103" depart="301.00" from="-1104" to="531"/>
    <trip id="104" depart="302.00" from="-1568" to="819"/>
    <trip id="105" depart="307.00" from="-539" to="1568"/>
    <trip id="106" depart="310.00" from="-531" to="939"/>
    <trip id="107" depart="315.00" from="-531" to="819"/>
    <trip id="108" depart="320.00" from="-531" to="1102"/>
    <trip id="109" depart="331.00" from="-1102" to="1690"/>
    <trip id="110" depart="332.00" from="-939" to="-485"/>
    <trip id="111" depart="333.00" from="-1104" to="1690"/>
    <trip id="112" depart="339.00" from="-531" to="1568"/>
    <trip id="113" depart="341.00" from="-1677" to="533"/>
    <trip id="114" depart="344.00" from="-531" to="1677"/>
    <trip id="115" depart="347.00" from="-531" to="1677"/>
    <trip id="116" depart="351.00" from="-1104" to="1102"/>
    <trip id="117" depart="353.00" from="-1690" to="-275"/>
    <trip id="118" depart="361.00" from="-1085" to="1677"/>
    <trip id="119" depart="363.00" from="-1104" to="-275"/>
    <trip id="120" depart="369.00" from="-1568" to="1104"/>
    <trip id="121" depart="372.00" from="275" to="1568"/>
    <trip id="122" depart="374.00" from="-531" to="1677"/>
    <trip id="123" depart="374.00" from="-1104" to="1089"/>
    <trip id="124" depart="379.00" from="-531" to="939"/>
    <trip id="125" depart="379.00" from="-939" to="1102"/>
    <trip id="126" depart="385.00" from="-1568" to="1690"/>
    <trip id="127" depart="389.00" from="-1102" to="819"/>
    <trip id="128" depart="393.00" from="275" to="485"/>
    <trip id="129" depart="394.00" from="-1677" to="531"/>
    <trip id="130" depart="395.00" from="-531" to="819"/>
    <trip id="131" depart="397.00" from="-939" to="819"/>
    <trip id="132" depart="398.00" from="275" to="939"/>
    <trip id="133" depart="398.00" from="-1677" to="1102"/>
    <trip id="134" depart="398.00" from="-1690" to="1104"/>
    <trip id="135" depart="400.00" from="-1085" to="1677"/>
    <trip id="136" depart="404.00" from="-1677" to="531"/>
    <trip id="137" depart="406.00" from="-1568" to="-275"/>
    <trip id="138" depart="410.00" from="-531" to="1104"/>
    <trip id="139" depart="410.00" from="-939" to="531"/>
    <trip id="140" depart="420.00" from="-939" to="1690"/>
    <trip id="141" depart="424.00" from="-819" to="1104"/>
    <trip id="142" depart="428.00" from="-531" to="939"/>
    <trip id="143" depart="430.00" from="-1677" to="-275"/>
    <trip id="144" depart="431.00" from="-1104" to="531"/>
    <trip id="145" depart="431.00" from="-1568" to="1102"/>
    <trip id="146" depart="432.00" from="-939" to="1690"/>
    <trip id="147" depart="433.00" from="-1568" to="1104"/>
    <trip id="148" depart="434.00" from="-1690" to="1102"/>
    <trip id="149" depart="441.00" from="-819" to="-275"/>
    <trip id="150" depart="451.00" from="-939" to="1102"/>
    <trip id="151" depart="458.00" from="-1102" to="819"/>
    <trip id="152" depart="458.00" from="-1104" to="1102"/>
    <trip id="153" depart="459.00" from="-531" to="1104"/>
    <trip id="154" depart="459.00" from="-1102" to="1104"/>
    <trip id="155" depart="462.00" from="275" to="1690"/>
    <trip id="156" depart="463.00" from="-1677" to="1568"/>
    <trip id="157" depart="464.00" from="-1677" to="1568"/>
    <trip id="158" depart="465.00" from="275" to="1690"/>
    <trip id="159" depart="467.00" from="-531" to="1677"/>
    <trip id="160" depart="472.00" from="-1677" to="1085"/>
    <trip id="161" depart="477.00" from="-1102" to="1085"/>
    <trip id="162" depart="479.00" from="275" to="1104"/>
    <trip id="163" depart="482.00" from="-819" to="1568"/>
    <trip id="164" depart="487.00" from="275" to="531"/>
    <trip id="165" depart="489.00" from="-1102" to="1085"/>
    <trip id="166" depart="493.00" from="275" to="1568"/>
    <trip id="167" depart="496.00" from="-1677" to="1102"/>
    <trip id="168" depart="496.00" from="-1085" to="939"/>
    <trip id="169" depart="503.00" from="275" to="819"/>
    <trip id="170" depart="512.00" from="-1677" to="-275"/>
    <trip id="171" depart="515.00" from="-1104" to="1085"/>
    <trip id="172" depart="523.00" from="-1677" to="531"/>
    <trip id="173" depart="524.00" from="-1690" to="1568"/>
    <trip id="174" depart="524.00" from="-819" to="939"/>
    <trip id="175" depart="525.00" from="-1677" to="531"/>
    <trip id="176" depart="526.00" from="-1677" to="1102"/>
    <trip id="177" depart="537.00" from="-1568" to="1104"/>
    <trip id="178" depart="538.00" from="-819" to="939"/>
    <trip id="179" depart="541.00" from="-1690" to="1568"/>
    <trip id="180" depart="547.00" from="-1085" to="1102"/>
    <trip id="181" depart="552.00" from="-1690" to="1104"/>
    <trip id="182" depart="555.00" from="-939" to="1102"/>
    <trip id="183" depart="559.00" from="-1104" to="1085"/>
    <trip id="184" depart="569.00" from="-1568" to="1104"/>
    <trip id="185" depart="570.00" from="-1568" to="531"/>
    <trip id="186" depart="572.00" from="-1568" to="531"/>
    <trip id="187" depart="572.00" from="1092" to="1104"/>
    <trip id="188" depart="573.00" from="-819" to="1677"/>
    <trip id="189" depart="578.00" from="-1690" to="1102"/>
    <trip id="190" depart="582.00" from="-939" to="-275"/>
    <trip id="191" depart="587.00" from="275" to="1690"/>
    <trip id="192" depart="590.00" from="-939" to="819"/>
    <trip id="193" depart="591.00" from="-1102" to="1104"/>
    <trip id="194" depart="598.00" from="-1102" to="1104"/>
    <trip id="195" depart="604.00" from="-1104" to="531"/>
    <trip id="196" depart="607.00" from="275" to="819"/>
    <trip id="197" depart="608.00" from="275" to="1690"/>
    <trip id="198" depart="618.00" from="-1102" to="1085"/>
    <trip id="199" depart="619.00" from="275" to="819"/>
    <trip id="200" depart="620.00" from="-1102" to="1085"/>
    <trip id="201" depart="621.00" from="275" to="819"/>
    <trip id="202" depart="624.00" from="-1104" to="1085"/>
    <trip id="203" depart="627.00" from="-939" to="1104"/>
    <trip id="204" depart="627.00" from="-1085" to="1568"/>
    <trip id="205" depart="634.00" from="-1085" to="1104"/>
    <trip id="206" depart="636.00" from="275" to="485"/>
    <trip id="207" depart="638.00" from="-1104" to="531"/>
    <trip id="208" depart="652.00" from="-819" to="1102"/>
    <trip id="209" depart="652.00" from="-1677" to="1568"/>
    <trip id="210" depart="654.00" from="-1085" to="1104"/>
    <trip id="211" depart="658.00" from="-1677" to="819"/>
    <trip id="212" depart="658.00" from="275" to="1568"/>
    <trip id="213" depart="661.00" from="-1085" to="1568"/>
    <trip id="214" depart="662.00" from="-939" to="1690"/>
    <trip id="215" depart="663.00" from="-1677" to="1102"/>
    <trip id="216" depart="663.00" from="-1104" to="939"/>
    <trip id="217" depart="669.00" from="-1690" to="-275"/>
    <trip id="218" depart="672.00" from="-1568" to="819"/>
    <trip id="219" depart="674.00" from="-1568" to="531"/>
    <trip id="220" depart="677.00" from="-1085" to="1677"/>
    <trip id="221" depart="680.00" from="-1104" to="1102"/>
    <trip id="222" depart="681.00" from="-1102" to="1677"/>
    <trip id="223" depart="681.00" from="-1104" to="1085"/>
    <trip id="224" depart="682.00" from="-1568" to="531"/>
    <trip id="225" depart="692.00" from="-1568" to="819"/>
    <trip id="226" depart="695.00" from="-939" to="819"/>
    <trip id="227" depart="696.00" from="-819" to="939"/>
    <trip id="228" depart="698.00" from="-1104" to="1690"/>
    <trip id="229" depart="700.00" from="-1677" to="819"/>
    <trip id="230" depart="706.00" from="-1102" to="939"/>
    <trip id="231" depart="707.00" from="-1690" to="1104"/>
    <trip id="232" depart="708.00" from="-531" to="1102"/>
    <trip id="233" depart="709.00" from="-819" to="531"/>
    <trip id="234" depart="718.00" from="-939" to="1104"/>
    <trip id="235" depart="719.00" from="-939" to="-275"/>
    <trip id="236" depart="722.00" from="-1568" to="819"/>
    <trip id="237" depart="724.00" from="-1690" to="939"/>
    <trip id="238" depart="726.00" from="-939" to="1690"/>
    <trip id="239" depart="727.00" from="275" to="1104"/>
    <trip id="240" depart="730.00" from="-1568" to="531"/>
    <trip id="241" depart="733.00" from="-1690" to="939"/>
    <trip id="242" depart="733.00" from="-531" to="939"/>
    <trip id="243" depart="737.00" from="-1568" to="-275"/>
    <trip id="244" depart="745.00" from="-1085" to="1677"/>
    <trip id="245" depart="752.00" from="-819" to="1677"/>
    <trip id="246" depart="754.00" from="-1104" to="1568"/>
    <trip id="247" depart="756.00" from="-1690" to="1677"/>
    <trip id="248" depart="757.00" from="-1690" to="1677"/>
    <trip id="249" depart="760.00" from="275" to="1677"/>
    <trip id="250" depart="760.00" from="-531" to="1568"/>
    <trip id="251" depart="764.00" from="-531" to="-275"/>
    <trip id="252" depart="766.00" from="-1568" to="539"/>
    <trip id="253" depart="768.00" from="-1102" to="1104"/>
    <trip id="254" depart="776.00" from="-1677" to="1690"/>
    <trip id="255" depart="777.00" from="-1089" to="1085"/>
    <trip id="256" depart="782.00" from="-1102" to="1568"/>
    <trip id="257" depart="788.00" from="-1568" to="531"/>
    <trip id="258" depart="793.00" from="-819" to="531"/>
    <trip id="259" depart="796.00" from="-1568" to="1690"/>
    <trip id="260" depart="801.00" from="-1102" to="1085"/>
    <trip id="261" depart="802.00" from="-939" to="531"/>
    <trip id="262" depart="803.00" from="275" to="939"/>
    <trip id="263" depart="805.00" from="-1677" to="1085"/>
    <trip id="264" depart="809.00" from="275" to="1085"/>
    <trip id="265" depart="812.00" from="-533" to="-275"/>
    <trip id="266" depart="815.00" from="275" to="1104"/>
    <trip id="267" depart="815.00" from="-1568" to="-275"/>
    <trip id="268" depart="817.00" from="-819" to="1677"/>
    <trip id="269" depart="817.00" from="-939" to="1690"/>
    <trip id="270" depart="820.00" from="-1085" to="1677"/>
    <trip id="271" depart="821.00" from="-1104" to="939"/>
    <trip id="272" depart="821.00" from="-1568" to="1102"/>
    <trip id="273" depart="831.00" from="-939" to="1102"/>
    <trip id="274" depart="834.00" from="-531" to="1104"/>
    <trip id="275" depart="837.00" from="-819" to="1677"/>
    <trip id="276" depart="839.00" from="-1677" to="819"/>
    <trip id="277" depart="840.00" from="-939" to="-275"/>
    <trip id="278" depart="844.00" from="-1104" to="1568"/>
    <trip id="279" depart="845.00" from="-1568" to="1102"/>
    <trip id="280" depart="846.00" from="-1102" to="1104"/>
    <trip id="281" depart="850.00" from="-819" to="939"/>
    <trip id="282" depart="853.00" from="-1085" to="939"/>
    <trip id="283" depart="854.00" from="-1102" to="1677"/>
    <trip id="284" depart="854.00" from="275" to="939"/>
    <trip id="285" depart="855.00" from="-1085" to="1677"/>
    <trip id="286" depart="860.00" from="-1690" to="1677"/>
    <trip id="287" depart="860.00" from="-1102" to="1104"/>
    <trip id="288" depart="861.00" from="-939" to="833"/>
    <trip id="289" depart="867.00" from="-1085" to="-275"/>
    <trip id="290" depart="872.00" from="-1104" to="819"/>
    <trip id="291" depart="875.00" from="-531" to="1568"/>
    <trip id="292" depart="877.00" from="-1104" to="-275"/>
    <trip id="293" depart="880.00" from="275" to="1677"/>
    <trip id="294" depart="882.00" from="-1568" to="531"/>
    <trip id="295" depart="883.00" from="275" to="819"/>
    <trip id="296" depart="888.00" from="-1085" to="1102"/>
    <trip id="297" depart="888.00" from="-1104" to="819"/>
    <trip id="298" depart="893.00" from="-1690" to="939"/>
    <trip id="299" depart="894.00" from="-939" to="819"/>
    <trip id="300" depart="897.00" from="-1677" to="1690"/>
    <trip id="301" depart="897.00" from="-1677" to="819"/>
    <trip id="302" depart="900.00" from="-1085" to="1102"/>
    <trip id="303" depart="914.00" from="-1568" to="1102"/>
    <trip id="304" depart="915.00" from="275" to="939"/>
    <trip id="305" depart="916.00" from="-1677" to="1102"/>
    <trip id="306" depart="916.00" from="-939" to="1690"/>
    <trip id="307" depart="919.00" from="-1568" to="1690"/>
    <trip id="308" depart="923.00" from="-939" to="-275"/>
    <trip id="309" depart="925.00" from="-531" to="819"/>
    <trip id="310" depart="927.00" from="-1085" to="1102"/>
    <trip id="311" depart="935.00" from="-531" to="819"/>
    <trip id="312" depart="936.00" from="-819" to="1104"/>
    <trip id="313" depart="942.00" from="-1690" to="939"/>
    <trip id="314" depart="942.00" from="-1677" to="1690"/>
    <trip id="315" depart="949.00" from="275" to="939"/>
    <trip id="316" depart="950.00" from="-939" to="-275"/>
    <trip id="317" depart="953.00" from="-531" to="-275"/>
    <trip id="318" depart="955.00" from="-1085" to="1677"/>
    <trip id="319" depart="961.00" from="275" to="531"/>
    <trip id="320" depart="963.00" from="-1677" to="1568"/>
    <trip id="321" depart="965.00" from="-939" to="1690"/>
    <trip id="322" depart="966.00" from="-1104" to="1085"/>
    <trip id="323" depart="967.00" from="-1690" to="1104"/>
    <trip id="324" depart="970.00" from="-1568" to="1690"/>
    <trip id="325" depart="975.00" from="-1677" to="1085"/>
    <trip id="326" depart="983.00" from="-1568" to="1085"/>
    <trip id="327" depart="983.00" from="-1085" to="1104"/>
    <trip id="328" depart="984.00" from="-1104" to="1568"/>
    <trip id="329" depart="986.00" from="275" to="1085"/>
    <trip id="330" depart="987.00" from="-939" to="819"/>
    <trip id="331" depart="989.00" from="-1568" to="1677"/>
    <trip id="332" depart="995.00" from="-1102" to="1690"/>
    <trip id="333" depart="996.00" from="-939" to="-275"/>
    <trip id="334" depart="997.00" from="-1690" to="1568"/>
    <trip id="335" depart="999.00" from="-1690" to="939"/>
    <trip id="336" depart="1000.00" from="-1102" to="819"/>
    <trip id="337" depart="1006.00" from="275" to="1568"/>
    <trip id="338" depart="1007.00" from="-1568" to="1677"/>
    <trip id="339" depart="1011.00" from="-1568" to="1690"/>
    <trip id="340" depart="1014.00" from="-531" to="819"/>
    <trip id="341" depart="1017.00" from="-1677" to="1085"/>
    <trip id="342" depart="1017.00" from="-1568" to="-275"/>
    <trip id="343" depart="1018.00" from="-1568" to="1104"/>
    <trip id="344" depart="1019.00" from="-531" to="1677"/>
    <trip id="345" depart="1020.00" from="275" to="1677"/>
    <trip id="346" depart="1029.00" from="-939" to="-275"/>
    <trip id="347" depart="1030.00" from="-1677" to="531"/>
    <trip id="348" depart="1035.00" from="-1104" to="1102"/>
    <trip id="349" depart="1037.00" from="275" to="1104"/>
    <trip id="350" depart="1044.00" from="-1690" to="1677"/>
    <trip id="351" depart="1051.00" from="-819" to="1102"/>
    <trip id="352" depart="1056.00" from="-819" to="-275"/>
    <trip id="353" depart="1057.00" from="-1102" to="1568"/>
    <trip id="354" depart="1058.00" from="-1677" to="-275"/>
    <trip id="355" depart="1061.00" from="-1690" to="-275"/>
    <trip id="356" depart="1061.00" from="-1104" to="1568"/>
    <trip id="357" depart="1063.00" from="-531" to="819"/>
    <trip id="358" depart="1068.00" from="-939" to="1104"/>
    <trip id="359" depart="1073.00" from="-1085" to="1104"/>
    <trip id="360" depart="1073.00" from="275" to="1085"/>
    <trip id="361" depart="1077.00" from="275" to="1104"/>
    <trip id="362" depart="1078.00" from="-939" to="1085"/>
    <trip id="363" depart="1083.00" from="-819" to="1104"/>
    <trip id="364" depart="1086.00" from="-531" to="939"/>
    <trip id="365" depart="1088.00" from="-1102" to="1104"/>
    <trip id="366" depart="1097.00" from="-1690" to="-275"/>
    <trip id="367" depart="1105.00" from="-1104" to="-275"/>
    <trip id="368" depart="1113.00" from="-1568" to="1085"/>
    <trip id="369" depart="1117.00" from="-531" to="939"/>
    <trip id="370" depart="1117.00" from="-1568" to="-275"/>
    <trip id="371" depart="1119.00" from="-1085" to="1677"/>
    <trip id="372" depart="1125.00" from="-1102" to="1677"/>
    <trip id="373" depart="1128.00" from="275" to="1085"/>
    <trip id="374" depart="1129.00" from="-1104" to="819"/>
    <trip id="375" depart="1143.00" from="-939" to="1085"/>
    <trip id="376" depart="1150.00" from="-939" to="-275"/>
    <trip id="377" depart="1153.00" from="-533" to="819"/>
    <trip id="378" depart="1156.00" from="1092" to="1568"/>
    <trip id="379" depart="1158.00" from="-1568" to="-275"/>
    <trip id="380" depart="1161.00" from="-939" to="1690"/>
    <trip id="381" depart="1163.00" from="-939" to="1102"/>
    <trip id="382" depart="1164.00" from="-1102" to="1085"/>
    <trip id="383" depart="1168.00" from="-819" to="-275"/>
    <trip id="384" depart="1171.00" from="-1102" to="1104"/>
    <trip id="385" depart="1171.00" from="-939" to="1690"/>
    <trip id="386" depart="1172.00" from="-1568" to="1102"/>
    <trip id="387" depart="1174.00" from="-1568" to="1085"/>
    <trip id="388" depart="1178.00" from="-1690" to="-275"/>
    <trip id="389" depart="1182.00" from="-1104" to="1085"/>
    <trip id="390" depart="1182.00" from="-1085" to="1568"/>
    <trip id="391" depart="1185.00" from="-1690" to="939"/>
    <trip id="392" depart="1188.00" from="-819" to="1568"/>
    <trip id="393" depart="1189.00" from="-819" to="1677"/>
    <trip id="394" depart="1191.00" from="-1690" to="1568"/>
    <trip id="395" depart="1194.00" from="-1085" to="-275"/>
    <trip id="396" depart="1195.00" from="-1104" to="1089"/>
    <trip id="397" depart="1196.00" from="-1102" to="1085"/>
    <trip id="398" depart="1198.00" from="-1690" to="-275"/>
    <trip id="399" depart="1199.00" from="275" to="1690"/>
    <trip id="400" depart="1208.00" from="-1102" to="1085"/>
    <trip id="401" depart="1209.00" from="-1102" to="531"/>
    <trip id="402" depart="1211.00" from="-1568" to="-275"/>
    <trip id="403" depart="1212.00" from="-1085" to="1568"/>
    <trip id="404" depart="1213.00" from="-1568" to="531"/>
    <trip id="405" depart="1213.00" from="-1102" to="819"/>
    <trip id="406" depart="1216.00" from="275" to="531"/>
    <trip id="407" depart="1217.00" from="-531" to="833"/>
    <trip id="408" depart="1220.00" from="-1102" to="1690"/>
    <trip id="409" depart="1221.00" from="-939" to="1085"/>
    <trip id="410" depart="1224.00" from="-531" to="939"/>
    <trip id="411" depart="1225.00" from="-1085" to="-275"/>
    <trip id="412" depart="1233.00" from="-1102" to="939"/>
    <trip id="413" depart="1236.00" from="-1568" to="1690"/>
    <trip id="414" depart="1243.00" from="-819" to="1568"/>
    <trip id="415" depart="1249.00" from="-939" to="531"/>
    <trip id="416" depart="1250.00" from="-1690" to="-275"/>
    <trip id="417" depart="1251.00" from="-531" to="1104"/>
    <trip id="418" depart="1254.00" from="-1677" to="1690"/>
    <trip id="419" depart="1255.00" from="-1104" to="1568"/>
    <trip id="420" depart="1258.00" from="-1085" to="1104"/>
    <trip id="421" depart="1262.00" from="-1104" to="1568"/>
    <trip id="422" depart="1268.00" from="275" to="1085"/>
    <trip id="423" depart="1270.00" from="-1690" to="1568"/>
    <trip id="424" depart="1270.00" from="-1102" to="1085"/>
    <trip id="425" depart="1274.00" from="-939" to="1690"/>
    <trip id="426" depart="1277.00" from="-1102" to="1085"/>
    <trip id="427" depart="1277.00" from="-939" to="1102"/>
    <trip id="428" depart="1279.00" from="-819" to="939"/>
    <trip id="429" depart="1281.00" from="-1677" to="819"/>
    <trip id="430" depart="1288.00" from="-1102" to="531"/>
    <trip id="431" depart="1290.00" from="-1104" to="531"/>
    <trip id="432" depart="1295.00" from="275" to="1690"/>
    <trip id="433" depart="1297.00" from="-939" to="1104"/>
    <trip id="434" depart="1299.00" from="275" to="1104"/>
    <trip id="435" depart="1304.00" from="-1104" to="531"/>
    <trip id="436" depart="1305.00" from="-1690" to="1102"/>
    <trip id="437" depart="1309.00" from="-1102" to="1085"/>
    <trip id="438" depart="1317.00" from="275" to="1104"/>
    <trip id="439" depart="1317.00" from="-1568" to="531"/>
    <trip id="440" depart="1324.00" from="-819" to="939"/>
    <trip id="441" depart="1326.00" from="-819" to="531"/>
    <trip id="442" depart="1327.00" from="-1102" to="819"/>
    <trip id="443" depart="1335.00" from="-1085" to="-275"/>
    <trip id="444" depart="1335.00" from="-939" to="-275"/>
    <trip id="445" depart="1339.00" from="-531" to="1108"/>
    <trip id="446" depart="1342.00" from="275" to="939"/>
    <trip id="447" depart="1343.00" from="-531" to="1102"/>
    <trip id="448" depart="1348.00" from="-1085" to="1104"/>
    <trip id="449" depart="1355.00" from="-1102" to="819"/>
    <trip id="450" depart="1355.00" from="-1102" to="531"/>
    <trip id="451" depart="1357.00" from="-531" to="1102"/>
    <trip id="452" depart="1362.00" from="-330" to="1677"/>
    <trip id="453" depart="1362.00" from="-1102" to="1568"/>
    <trip id="454" depart="1366.00" from="-533" to="1677"/>
    <trip id="455" depart="1372.00" from="-531" to="1568"/>
    <trip id="456" depart="1374.00" from="-939" to="1102"/>
    <trip id="457" depart="1374.00" from="-531" to="939"/>
    <trip id="458" depart="1374.00" from="-939" to="531"/>
    <trip id="459" depart="1378.00" from="-531" to="1677"/>
    <trip id="460" depart="1379.00" from="275" to="1104"/>
    <trip id="461" depart="1381.00" from="-1690" to="1568"/>
    <trip id="462" depart="1383.00" from="275" to="1690"/>
    <trip id="463" depart="1392.00" from="-1104" to="531"/>
    <trip id="464" depart="1392.00" from="-819" to="1677"/>
    <trip id="465" depart="1394.00" from="-1690" to="-275"/>
    <trip id="466" depart="1395.00" from="275" to="1690"/>
    <trip id="467" depart="1397.00" from="-1102" to="819"/>
    <trip id="468" depart="1397.00" from="-531" to="1677"/>
    <trip id="469" depart="1400.00" from="-531" to="1102"/>
    <trip id="470" depart="1402.00" from="-939" to="1104"/>
    <trip id="471" depart="1409.00" from="-531" to="1677"/>
    <trip id="472" depart="1409.00" from="-531" to="819"/>
    <trip id="473" depart="1413.00" from="-531" to="939"/>
    <trip id="474" depart="1420.00" from="-1568" to="-275"/>
    <trip id="475" depart="1422.00" from="-1568" to="1677"/>
    <trip id="476" depart="1424.00" from="-1568" to="-275"/>
    <trip id="477" depart="1424.00" from="-1085" to="1102"/>
    <trip id="478" depart="1425.00" from="-1102" to="1568"/>
    <trip id="479" depart="1440.00" from="-1102" to="1677"/>
    <trip id="480" depart="1441.00" from="-1102" to="1690"/>