<?xml version='1.0' encoding='UTF-8'?>
<configuration>
  <input>
    <net-file value="random_subnetwork_1.net.xml"/>
    <route-files value="random_subnetwork_1_high.trips.xml"/>
  </input>
  <time>
    <begin value="0"/>
    <end value="3600"/>
  </time>
  <report>
    <verbose value="true"/>
    <no-step-log value="true"/>
  </report>
</configuration>
