<?xml version="1.0" encoding="UTF-8"?>

<!-- generated on 2025-03-19 08:53:41.982792 by randomTrips.py v1_22_0+0449-9311ec3459f
<configuration>
    <net-file value="random_subnetwork_2.net.xml"/>
    <output-trip-file value="random_subnetwork_2_medium.trips.xml"/>
    <fringe-factor value="100"/>
    <min-distance value="600.0"/>
    <remove-loops value="True"/>
    <validate value="True"/>
    <period value="1.5"/>
    <random-depart value="True"/>
    <binomial value="10"/>
</configuration>
-->

<!-- generated on 2025-03-19 08:53:41 by Eclipse SUMO duarouter Version v1_22_0+0449-9311ec3459f
<duarouterConfiguration xmlns:xsi="http://www.w3.org/2001/XMLSchema-instance" xsi:noNamespaceSchemaLocation="http://sumo.dlr.de/xsd/duarouterConfiguration.xsd">

    <input>
        <net-file value="random_subnetwork_2.net.xml"/>
        <route-files value="random_subnetwork_2_medium.trips.xml"/>
    </input>

    <output>
        <output-file value="random_subnetwork_2_medium.trips.xml.tmp"/>
        <alternatives-output value="NUL"/>
        <write-trips value="true"/>
    </output>

    <processing>
        <remove-loops value="true"/>
    </processing>

    <time>
        <begin value="0.0"/>
        <end value="3600.0"/>
    </time>

    <report>
        <no-warnings value="true"/>
        <ignore-errors value="true"/>
        <no-step-log value="true"/>
    </report>

</duarouterConfiguration>
-->

<routes xmlns:xsi="http://www.w3.org/2001/XMLSchema-instance" xsi:noNamespaceSchemaLocation="http://sumo.dlr.de/xsd/routes_file.xsd">
    <trip id="0" depart="0.00" from="-27" to="1926"/>
    <trip id="1" depart="0.00" from="-1926" to="-258"/>
    <trip id="2" depart="1.00" from="1439" to="2054"/>
    <trip id="3" depart="2.00" from="-27" to="1926"/>
    <trip id="4" depart="5.00" from="-270" to="1926"/>
    <trip id="5" depart="7.00" from="-2054" to="275"/>
    <trip id="6" depart="7.00" from="-270" to="678"/>
    <trip id="7" depart="8.00" from="-678" to="275"/>
    <trip id="8" depart="10.00" from="-270" to="-1102"/>
    <trip id="9" depart="10.00" from="1102" to="678"/>
    <trip id="10" depart="17.00" from="1439" to="678"/>
    <trip id="11" depart="17.00" from="-270" to="678"/>
    <trip id="12" depart="19.00" from="-301" to="27"/>
    <trip id="13" depart="23.00" from="1102" to="1926"/>
    <trip id="14" depart="25.00" from="-678" to="275"/>
    <trip id="15" depart="25.00" from="-1926" to="497"/>
    <trip id="16" depart="28.00" from="-678" to="2054"/>
    <trip id="17" depart="30.00" from="1102" to="678"/>
    <trip id="18" depart="32.00" from="-678" to="301"/>
    <trip id="19" depart="34.00" from="1439" to="301"/>
    <trip id="20" depart="35.00" from="-2054" to="275"/>
    <trip id="21" depart="35.00" from="-678" to="301"/>
    <trip id="22" depart="36.00" from="-497" to="678"/>
    <trip id="23" depart="39.00" from="-275" to="270"/>
    <trip id="24" depart="40.00" from="-270" to="301"/>
    <trip id="25" depart="41.00" from="-270" to="275"/>
    <trip id="26" depart="41.00" from="-275" to="270"/>
    <trip id="27" depart="42.00" from="-497" to="-1439"/>
    <trip id="28" depart="42.00" from="-270" to="-518"/>
    <trip id="29" depart="43.00" from="-301" to="789"/>
    <trip id="30" depart="43.00" from="-2054" to="-1439"/>
    <trip id="31" depart="45.00" from="-270" to="275"/>
    <trip id="32" depart="49.00" from="1102" to="-1439"/>
    <trip id="33" depart="50.00" from="1439" to="-1102"/>
    <trip id="34" depart="53.00" from="-301" to="1926"/>
    <trip id="35" depart="55.00" from="1439" to="27"/>
    <trip id="36" depart="55.00" from="-2054" to="270"/>
    <trip id="37" depart="58.00" from="-275" to="270"/>
    <trip id="38" depart="61.00" from="-275" to="2054"/>
    <trip id="39" depart="62.00" from="-678" to="27"/>
    <trip id="40" depart="70.00" from="-678" to="301"/>
    <trip id="41" depart="71.00" from="-301" to="270"/>
    <trip id="42" depart="73.00" from="-1926" to="275"/>
    <trip id="43" depart="74.00" from="1102" to="1926"/>
    <trip id="44" depart="76.00" from="1102" to="503"/>
    <trip id="45" depart="78.00" from="1439" to="1926"/>
    <trip id="46" depart="83.00" from="-301" to="27"/>
    <trip id="48" depart="84.00" from="1102" to="678"/>
    <trip id="49" depart="86.00" from="-270" to="27"/>
    <trip id="50" depart="88.00" from="-789" to="1926"/>
    <trip id="51" depart="89.00" from="1102" to="-1439"/>
    <trip id="52" depart="89.00" from="-1926" to="301"/>
    <trip id="53" depart="90.00" from="-678" to="270"/>
    <trip id="54" depart="90.00" from="-678" to="497"/>
    <trip id="55" depart="91.00" from="-275" to="2054"/>
    <trip id="56" depart="92.00" from="-301" to="2054"/>
    <trip id="57" depart="97.00" from="1439" to="497"/>
    <trip id="58" depart="98.00" from="1102" to="270"/>
    <trip id="59" depart="98.00" from="-678" to="15"/>
    <trip id="60" depart="99.00" from="-2054" to="275"/>
    <trip id="61" depart="100.00" from="-275" to="270"/>
    <trip id="62" depart="101.00" from="-270" to="-518"/>
    <trip id="63" depart="101.00" from="-678" to="-1439"/>
    <trip id="64" depart="102.00" from="-1926" to="678"/>
    <trip id="65" depart="102.00" from="-270" to="43"/>
    <trip id="66" depart="107.00" from="-301" to="1926"/>
    <trip id="67" depart="107.00" from="-275" to="270"/>
    <trip id="68" depart="108.00" from="-2054" to="497"/>
    <trip id="69" depart="110.00" from="-1926" to="275"/>
    <trip id="70" depart="114.00" from="-270" to="301"/>
    <trip id="71" depart="119.00" from="-1926" to="27"/>
    <trip id="72" depart="119.00" from="1439" to="497"/>
    <trip id="73" depart="120.00" from="1102" to="270"/>
    <trip id="74" depart="121.00" from="-275" to="-1439"/>
    <trip id="75" depart="121.00" from="-301" to="1926"/>
    <trip id="76" depart="123.00" from="1102" to="2054"/>
    <trip id="77" depart="123.00" from="-301" to="497"/>
    <trip id="78" depart="124.00" from="-678" to="27"/>
    <trip id="79" depart="124.00" from="289" to="270"/>
    <trip id="80" depart="128.00" from="1102" to="2054"/>
    <trip id="81" depart="129.00" from="-1926" to="301"/>
    <trip id="82" depart="133.00" from="-301" to="497"/>
    <trip id="83" depart="134.00" from="-301" to="2054"/>
    <trip id="84" depart="136.00" from="-2054" to="-1439"/>
    <trip id="85" depart="139.00" from="-1926" to="275"/>
    <trip id="86" depart="140.00" from="-270" to="301"/>
    <trip id="87" depart="143.00" from="1439" to="27"/>
    <trip id="88" depart="143.00" from="-301" to="497"/>
    <trip id="89" depart="146.00" from="-497" to="270"/>
    <trip id="90" depart="148.00" from="-275" to="678"/>
    <trip id="91" depart="149.00" from="-2054" to="275"/>
    <trip id="92" depart="150.00" from="-2054" to="-493"/>
    <trip id="93" depart="155.00" from="-1926" to="301"/>
    <trip id="94" depart="155.00" from="-301" to="678"/>
    <trip id="95" depart="158.00" from="-301" to="-1439"/>
    <trip id="96" depart="162.00" from="-1926" to="-1439"/>
    <trip id="97" depart="165.00" from="-301" to="27"/>
    <trip id="98" depart="166.00" from="-678" to="2054"/>
    <trip id="99" depart="166.00" from="-270" to="-1102"/>
    <trip id="100" depart="167.00" from="43" to="2054"/>
    <trip id="101" depart="168.00" from="-497" to="270"/>
    <trip id="102" depart="170.00" from="-27" to="-1439"/>
    <trip id="103" depart="170.00" from="-1926" to="301"/>
    <trip id="104" depart="170.00" from="-301" to="1926"/>
    <trip id="105" depart="171.00" from="1439" to="497"/>
    <trip id="106" depart="176.00" from="1439" to="678"/>
    <trip id="107" depart="181.00" from="-1926" to="497"/>
    <trip id="108" depart="182.00" from="-301" to="2054"/>
    <trip id="109" depart="182.00" from="-301" to="-1102"/>
    <trip id="110" depart="183.00" from="1102" to="678"/>
    <trip id="111" depart="185.00" from="-1926" to="-1439"/>
    <trip id="112" depart="186.00" from="1439" to="27"/>
    <trip id="113" depart="186.00" from="-1926" to="678"/>
    <trip id="114" depart="186.00" from="1439" to="2054"/>
    <trip id="115" depart="188.00" from="-270" to="301"/>
    <trip id="116" depart="188.00" from="-27" to="678"/>
    <trip id="117" depart="190.00" from="-270" to="2054"/>
    <trip id="118" depart="191.00" from="-270" to="-1102"/>
    <trip id="119" depart="192.00" from="-27" to="1926"/>
    <trip id="121" depart="200.00" from="-27" to="270"/>
    <trip id="122" depart="201.00" from="-2054" to="27"/>
    <trip id="123" depart="204.00" from="-497" to="2054"/>
    <trip id="124" depart="204.00" from="-2054" to="497"/>
    <trip id="125" depart="208.00" from="-270" to="-1102"/>
    <trip id="126" depart="209.00" from="-678" to="1926"/>
    <trip id="127" depart="211.00" from="-678" to="270"/>
    <trip id="128" depart="213.00" from="-270" to="1926"/>
    <trip id="129" depart="217.00" from="-678" to="301"/>
    <trip id="131" depart="218.00" from="-1926" to="301"/>
    <trip id="132" depart="219.00" from="1439" to="-295"/>
    <trip id="133" depart="220.00" from="-275" to="-1439"/>
    <trip id="134" depart="221.00" from="-678" to="497"/>
    <trip id="135" depart="222.00" from="-678" to="275"/>
    <trip id="136" depart="225.00" from="1439" to="678"/>
    <trip id="137" depart="227.00" from="-1926" to="-1102"/>
    <trip id="138" depart="229.00" from="-678" to="301"/>
    <trip id="139" depart="229.00" from="-1926" to="27"/>
    <trip id="140" depart="231.00" from="1102" to="1926"/>
    <trip id="141" depart="231.00" from="-678" to="270"/>
    <trip id="142" depart="232.00" from="1102" to="1926"/>
    <trip id="143" depart="235.00" from="-270" to="275"/>
    <trip id="144" depart="236.00" from="-275" to="1926"/>
    <trip id="145" depart="237.00" from="-678" to="-1439"/>
    <trip id="146" depart="237.00" from="503" to="301"/>
    <trip id="147" depart="241.00" from="1102" to="2054"/>
    <trip id="148" depart="242.00" from="-678" to="1926"/>
    <trip id="149" depart="242.00" from="1102" to="678"/>
    <trip id="150" depart="243.00" from="-1926" to="518"/>
    <trip id="151" depart="244.00" from="-275" to="-1439"/>
    <trip id="152" depart="244.00" from="-497" to="-1439"/>
    <trip id="153" depart="245.00" from="-497" to="1926"/>
    <trip id="154" depart="245.00" from="-27" to="-1439"/>
    <trip id="155" depart="247.00" from="303" to="270"/>
    <trip id="156" depart="248.00" from="503" to="1926"/>
    <trip id="157" depart="249.00" from="-301" to="270"/>
    <trip id="158" depart="250.00" from="1439" to="-289"/>
    <trip id="159" depart="251.00" from="-301" to="678"/>
    <trip id="160" depart="254.00" from="-497" to="678"/>
    <trip id="161" depart="256.00" from="-270" to="301"/>
    <trip id="162" depart="259.00" from="-1926" to="-43"/>
    <trip id="163" depart="260.00" from="-301" to="497"/>
    <trip id="164" depart="261.00" from="-2054" to="1926"/>
    <trip id="165" depart="262.00" from="-678" to="275"/>
    <trip id="166" depart="269.00" from="-27" to="-1439"/>
    <trip id="167" depart="269.00" from="1439" to="2054"/>
    <trip id="168" depart="270.00" from="1102" to="1926"/>
    <trip id="169" depart="272.00" from="-2054" to="497"/>
    <trip id="170" depart="273.00" from="-2054" to="497"/>
    <trip id="171" depart="275.00" from="-678" to="301"/>
    <trip id="172" depart="275.00" from="1439" to="275"/>
    <trip id="173" depart="275.00" from="-270" to="678"/>
    <trip id="174" depart="277.00" from="266" to="275"/>
    <trip id="175" depart="279.00" from="-678" to="270"/>
    <trip id="176" depart="283.00" from="1102" to="-1439"/>
    <trip id="177" depart="285.00" from="-27" to="301"/>
    <trip id="178" depart="286.00" from="154" to="2054"/>
    <trip id="179" depart="286.00" from="-270" to="497"/>
    <trip id="180" depart="289.00" from="1102" to="1926"/>
    <trip id="181" depart="289.00" from="-518" to="27"/>
    <trip id="182" depart="292.00" from="-301" to="-493"/>
    <trip id="183" depart="292.00" from="-497" to="678"/>
    <trip id="184" depart="294.00" from="-270" to="301"/>
    <trip id="185" depart="294.00" from="1102" to="-1439"/>
    <trip id="186" depart="295.00" from="-275" to="270"/>
    <trip id="187" depart="296.00" from="-27" to="2054"/>
    <trip id="188" depart="298.00" from="-497" to="-1439"/>
    <trip id="189" depart="299.00" from="-275" to="1926"/>
    <trip id="190" depart="300.00" from="-1926" to="270"/>
    <trip id="191" depart="301.00" from="-678" to="-1439"/>
    <trip id="192" depart="302.00" from="-2054" to="-1439"/>
    <trip id="193" depart="304.00" from="1439" to="497"/>
    <trip id="194" depart="309.00" from="-2054" to="275"/>
    <trip id="195" depart="310.00" from="1102" to="-1439"/>
    <trip id="196" depart="312.00" from="-678" to="497"/>
    <trip id="197" depart="315.00" from="1439" to="275"/>
    <trip id="198" depart="317.00" from="1439" to="275"/>
    <trip id="199" depart="318.00" from="-301" to="678"/>
    <trip id="200" depart="319.00" from="-1926" to="275"/>
    <trip id="201" depart="320.00" from="1102" to="270"/>
    <trip id="202" depart="321.00" from="-497" to="270"/>
    <trip id="203" depart="324.00" from="-497" to="270"/>
    <trip id="204" depart="329.00" from="-27" to="1926"/>
    <trip id="205" depart="331.00" from="-301" to="-1102"/>
    <trip id="206" depart="334.00" from="-270" to="-1102"/>
    <trip id="207" depart="335.00" from="1439" to="2054"/>
    <trip id="208" depart="339.00" from="-1926" to="270"/>
    <trip id="209" depart="339.00" from="-301" to="-1102"/>
    <trip id="210" depart="340.00" from="-678" to="275"/>
    <trip id="211" depart="342.00" from="-678" to="27"/>
    <trip id="212" depart="344.00" from="-301" to="1926"/>
    <trip id="213" depart="346.00" from="-270" to="2054"/>
    <trip id="214" depart="349.00" from="-1926" to="-1439"/>
    <trip id="215" depart="349.00" from="-27" to="-1102"/>
    <trip id="216" depart="349.00" from="-270" to="678"/>
    <trip id="217" depart="351.00" from="-497" to="270"/>
    <trip id="218" depart="351.00" from="-27" to="-11"/>
    <trip id="219" depart="355.00" from="-2054" to="-1102"/>
    <trip id="220" depart="356.00" from="1102" to="1926"/>
    <trip id="221" depart="359.00" from="-301" to="678"/>
    <trip id="222" depart="360.00" from="1102" to="27"/>
    <trip id="223" depart="361.00" from="-27" to="270"/>
    <trip id="224" depart="365.00" from="1102" to="27"/>
    <trip id="225" depart="366.00" from="-2054" to="497"/>
    <trip id="226" depart="369.00" from="-678" to="275"/>
    <trip id="227" depart="370.00" from="1102" to="270"/>
    <trip id="228" depart="370.00" from="-2054" to="275"/>
    <trip id="229" depart="371.00" from="-270" to="27"/>
    <trip id="230" depart="373.00" from="-270" to="27"/>
    <trip id="231" depart="373.00" from="1439" to="678"/>
    <trip id="232" depart="373.00" from="-275" to="1926"/>
    <trip id="233" depart="373.00" from="-301" to="2054"/>
    <trip id="234" depart="376.00" from="-1926" to="270"/>
    <trip id="235" depart="378.00" from="-678" to="-1102"/>
    <trip id="236" depart="379.00" from="-301" to="678"/>
    <trip id="237" depart="379.00" from="-258" to="497"/>
    <trip id="238" depart="380.00" from="-1926" to="301"/>
    <trip id="239" depart="382.00" from="1102" to="-1439"/>
    <trip id="240" depart="384.00" from="-497" to="2054"/>
    <trip id="241" depart="385.00" from="1102" to="301"/>
    <trip id="242" depart="388.00" from="-301" to="678"/>
    <trip id="243" depart="389.00" from="1439" to="678"/>
    <trip id="244" depart="394.00" from="-27" to="270"/>
    <trip id="245" depart="394.00" from="-1926" to="2054"/>
    <trip id="246" depart="396.00" from="-678" to="2054"/>
    <trip id="247" depart="397.00" from="-678" to="2054"/>
    <trip id="248" depart="397.00" from="-301" to="-1439"/>
    <trip id="249" depart="397.00" from="-678" to="2054"/>
    <trip id="250" depart="398.00" from="-2054" to="-1439"/>
    <trip id="251" depart="400.00" from="-270" to="678"/>
    <trip id="252" depart="400.00" from="-270" to="301"/>
    <trip id="253" depart="401.00" from="1439" to="678"/>
    <trip id="254" depart="401.00" from="-678" to="-1439"/>
    <trip id="255" depart="401.00" from="-27" to="270"/>
    <trip id="256" depart="402.00" from="-1926" to="-1439"/>
    <trip id="257" depart="402.00" from="-270" to="1926"/>
    <trip id="258" depart="403.00" from="-27" to="2054"/>
    <trip id="259" depart="404.00" from="-27" to="270"/>
    <trip id="260" depart="405.00" from="-301" to="1926"/>
    <trip id="261" depart="412.00" from="-678" to="-1102"/>
    <trip id="262" depart="413.00" from="1439" to="678"/>
    <trip id="263" depart="413.00" from="-678" to="2054"/>
    <trip id="264" depart="414.00" from="5" to="270"/>
    <trip id="265" depart="415.00" from="-27" to="2054"/>
    <trip id="266" depart="416.00" from="-301" to="-1439"/>
    <trip id="267" depart="421.00" from="1102" to="1926"/>
    <trip id="268" depart="422.00" from="-2054" to="275"/>
    <trip id="269" depart="422.00" from="1102" to="1926"/>
    <trip id="270" depart="422.00" from="-275" to="-1439"/>
    <trip id="271" depart="427.00" from="-1926" to="275"/>
    <trip id="272" depart="428.00" from="-27" to="1926"/>
    <trip id="273" depart="428.00" from="-497" to="2054"/>
    <trip id="274" depart="429.00" from="-270" to="275"/>
    <trip id="276" depart="432.00" from="1439" to="154"/>
    <trip id="277" depart="433.00" from="-2054" to="678"/>
    <trip id="278" depart="434.00" from="1439" to="275"/>
    <trip id="279" depart="435.00" from="-270" to="497"/>
    <trip id="280" depart="435.00" from="-497" to="270"/>
    <trip id="281" depart="437.00" from="-275" to="-1439"/>
    <trip id="282" depart="440.00" from="-275" to="2054"/>
    <trip id="283" depart="445.00" from="-2054" to="-1439"/>
    <trip id="284" depart="447.00" from="11" to="2054"/>
    <trip id="285" depart="447.00" from="-678" to="497"/>
    <trip id="286" depart="450.00" from="-678" to="27"/>
    <trip id="287" depart="454.00" from="-270" to="301"/>
    <trip id="288" depart="455.00" from="1439" to="301"/>
    <trip id="289" depart="455.00" from="-275" to="-1439"/>
    <trip id="290" depart="455.00" from="295" to="497"/>
    <trip id="291" depart="456.00" from="-2054" to="-1439"/>
    <trip id="292" depart="460.00" from="1439" to="27"/>
    <trip id="293" depart="461.00" from="1439" to="275"/>
    <trip id="294" depart="463.00" from="-1926" to="-1439"/>
    <trip id="295" depart="463.00" from="-1926" to="678"/>
    <trip id="296" depart="466.00" from="1439" to="1926"/>
    <trip id="297" depart="470.00" from="1439" to="497"/>
    <trip id="298" depart="471.00" from="-678" to="497"/>
    <trip id="299" depart="473.00" from="-301" to="1926"/>
    <trip id="300" depart="473.00" from="-1926" to="301"/>
    <trip id="301" depart="473.00" from="-2054" to="497"/>
    <trip id="302" depart="474.00" from="-2054" to="275"/>
    <trip id="303" depart="474.00" from="-678" to="-1439"/>
    <trip id="304" depart="474.00" from="-270" to="301"/>
    <trip id="305" depart="477.00" from="-1926" to="497"/>
    <trip id="306" depart="478.00" from="-2054" to="-1102"/>
    <trip id="307" depart="479.00" from="-2054" to="27"/>
    <trip id="308" depart="480.00" from="-27" to="-1439"/>
    <trip id="309" depart="481.00" from="-497" to="1926"/>
    <trip id="310" depart="482.00" from="-2054" to="301"/>
    <trip id="311" depart="485.00" from="-2054" to="497"/>
    <trip id="312" depart="488.00" from="1439" to="-1102"/>
    <trip id="313" depart="488.00" from="-301" to="27"/>
    <trip id="314" depart="489.00" from="-2054" to="1926"/>
    <trip id="315" depart="489.00" from="1102" to="2054"/>
    <trip id="316" depart="490.00" from="-275" to="1926"/>
    <trip id="317" depart="491.00" from="1439" to="275"/>
    <trip id="318" depart="494.00" from="-270" to="27"/>
    <trip id="319" depart="495.00" from="1439" to="27"/>
    <trip id="320" depart="497.00" from="1102" to="1926"/>
    <trip id="321" depart="499.00" from="-270" to="27"/>
    <trip id="322" depart="500.00" from="-27" to="-1439"/>
    <trip id="323" depart="500.00" from="-270" to="2054"/>
    <trip id="324" depart="501.00" from="-270" to="301"/>
    <trip id="325" depart="503.00" from="-497" to="270"/>
    <trip id="326" depart="503.00" from="-301" to="27"/>
    <trip id="327" depart="507.00" from="1439" to="301"/>
    <trip id="328" depart="508.00" from="-15" to="1926"/>
    <trip id="329" depart="511.00" from="-270" to="497"/>
    <trip id="330" depart="513.00" from="-301" to="2054"/>
    <trip id="331" depart="516.00" from="1102" to="1926"/>
    <trip id="332" depart="517.00" from="-2054" to="301"/>
    <trip id="333" depart="518.00" from="-2054" to="1926"/>
    <trip id="334" depart="518.00" from="-497" to="301"/>
    <trip id="335" depart="520.00" from="-27" to="-1439"/>
    <trip id="336" depart="522.00" from="-27" to="270"/>
    <trip id="337" depart="525.00" from="1439" to="2054"/>
    <trip id="338" depart="527.00" from="-1926" to="275"/>
    <trip id="339" depart="529.00" from="-275" to="678"/>
    <trip id="340" depart="530.00" from="-301" to="497"/>
    <trip id="341" depart="532.00" from="-1926" to="497"/>
    <trip id="342" depart="532.00" from="1439" to="2054"/>
    <trip id="343" depart="533.00" from="-270" to="2054"/>
    <trip id="344" depart="533.00" from="-270" to="27"/>
    <trip id="345" depart="536.00" from="503" to="2054"/>
    <trip id="346" depart="538.00" from="-678" to="497"/>
    <trip id="347" depart="540.00" from="-27" to="262"/>
    <trip id="348" depart="542.00" from="-2054" to="-1439"/>
    <trip id="349" depart="543.00" from="1439" to="2054"/>
    <trip id="350" depart="547.00" from="1439" to="275"/>
    <trip id="351" depart="550.00" from="1439" to="27"/>
    <trip id="352" depart="551.00" from="-1926" to="275"/>
    <trip id="353" depart="559.00" from="-678" to="275"/>
    <trip id="354" depart="559.00" from="-270" to="1926"/>
    <trip id="355" depart="560.00" from="-270" to="2054"/>
    <trip id="356" depart="561.00" from="-2054" to="497"/>
    <trip id="357" depart="563.00" from="-2054" to="1926"/>
    <trip id="358" depart="563.00" from="-27" to="301"/>
    <trip id="359" depart="564.00" from="-270" to="301"/>
    <trip id="360" depart="566.00" from="-275" to="270"/>
    <trip id="361" depart="567.00" from="1439" to="275"/>
    <trip id="362" depart="568.00" from="-497" to="2054"/>
    <trip id="363" depart="568.00" from="-1926" to="678"/>
    <trip id="364" depart="571.00" from="-270" to="27"/>
    <trip id="365" depart="573.00" from="-1926" to="-1102"/>
    <trip id="366" depart="576.00" from="-2054" to="-1439"/>
    <trip id="367" depart="578.00" from="-2054" to="-1102"/>
    <trip id="368" depart="579.00" from="-2054" to="-1439"/>
    <trip id="369" depart="580.00" from="-1926" to="275"/>
    <trip id="370" depart="582.00" from="1439" to="27"/>
    <trip id="371" depart="582.00" from="-27" to="-1439"/>
    <trip id="372" depart="585.00" from="-1926" to="497"/>
    <trip id="373" depart="586.00" from="-1926" to="27"/>
    <trip id="374" depart="587.00" from="1102" to="1926"/>
    <trip id="375" depart="588.00" from="-2054" to="275"/>
    <trip id="376" depart="592.00" from="-2054" to="-1102"/>
    <trip id="377" depart="592.00" from="-678" to="275"/>
    <trip id="378" depart="593.00" from="-497" to="301"/>
    <trip id="379" depart="594.00" from="-27" to="270"/>
    <trip id="380" depart="595.00" from="-270" to="301"/>
    <trip id="381" depart="596.00" from="1102" to="270"/>
    <trip id="382" depart="597.00" from="-270" to="275"/>
    <trip id="383" depart="597.00" from="-497" to="-1439"/>
    <trip id="384" depart="600.00" from="1439" to="27"/>
    <trip id="385" depart="603.00" from="-3" to="1926"/>
    <trip id="386" depart="603.00" from="1439" to="497"/>
    <trip id="387" depart="608.00" from="-301" to="-1439"/>
    <trip id="388" depart="608.00" from="-789" to="1926"/>
    <trip id="389" depart="609.00" from="1102" to="2054"/>
    <trip id="390" depart="610.00" from="-1926" to="2054"/>
    <trip id="391" depart="612.00" from="-275" to="2054"/>
    <trip id="392" depart="614.00" from="-27" to="678"/>
    <trip id="393" depart="614.00" from="1439" to="27"/>
    <trip id="394" depart="615.00" from="-678" to="270"/>
    <trip id="395" depart="617.00" from="-678" to="275"/>
    <trip id="396" depart="617.00" from="-275" to="515"/>
    <trip id="397" depart="618.00" from="-497" to="2054"/>
    <trip id="398" depart="619.00" from="-275" to="678"/>
    <trip id="399" depart="619.00" from="-27" to="678"/>
    <trip id="400" depart="622.00" from="-2054" to="-1102"/>
    <trip id="401" depart="623.00" from="1439" to="27"/>
    <trip id="402" depart="625.00" from="-2054" to="-1102"/>
    <trip id="403" depart="625.00" from="-27" to="-1439"/>
    <trip id="404" depart="626.00" from="-270" to="301"/>
    <trip id="405" depart="627.00" from="-2054" to="678"/>
    <trip id="406" depart="627.00" from="-497" to="270"/>
    <trip id="407" depart="628.00" from="-270" to="301"/>
    <trip id="408" depart="630.00" from="-270" to="27"/>
    <trip id="409" depart="631.00" from="-1926" to="27"/>
    <trip id="410" depart="633.00" from="-27" to="-1102"/>
    <trip id="411" depart="635.00" from="-2054" to="1926"/>
    <trip id="412" depart="635.00" from="-1926" to="154"/>
    <trip id="413" depart="636.00" from="1102" to="678"/>
    <trip id="414" depart="636.00" from="-497" to="2054"/>
    <trip id="415" depart="637.00" from="-2054" to="678"/>
    <trip id="416" depart="638.00" from="-497" to="-1439"/>
    <trip id="417" depart="638.00" from="1102" to="678"/>
    <trip id="418" depart="639.00" from="-301" to="27"/>
    <trip id="419" depart="640.00" from="-27" to="-295"/>
    <trip id="420" depart="643.00" from="-266" to="-1916"/>
    <trip id="421" depart="645.00" from="-270" to="497"/>
    <trip id="422" depart="648.00" from="-270" to="27"/>
    <trip id="423" depart="648.00" from="-2054" to="678"/>
    <trip id="424" depart="650.00" from="-515" to="27"/>
    <trip id="425" depart="651.00" from="-301" to="-1439"/>
    <trip id="426" depart="653.00" from="-2054" to="-1102"/>
    <trip id="427" depart="659.00" from="-2054" to="678"/>
    <trip id="428" depart="660.00" from="-301" to="2054"/>
    <trip id="429" depart="660.00" from="-678" to="497"/>
    <trip id="430" depart="661.00" from="-1573" to="301"/>
    <trip id="431" depart="664.00" from="-270" to="-1102"/>
    <trip id="432" depart="668.00" from="-270" to="1926"/>
    <trip id="433" depart="669.00" from="1439" to="301"/>
    <trip id="434" depart="669.00" from="1102" to="2054"/>
    <trip id="435" depart="671.00" from="-2054" to="275"/>
    <trip id="436" depart="674.00" from="-270" to="497"/>
    <trip id="437" depart="675.00" from="-301" to="678"/>
    <trip id="438" depart="676.00" from="1439" to="2054"/>
    <trip id="439" depart="678.00" from="-497" to="1926"/>
    <trip id="440" depart="678.00" from="-678" to="275"/>
    <trip id="441" depart="681.00" from="-1926" to="275"/>
    <trip id="442" depart="682.00" from="-2054" to="301"/>
    <trip id="443" depart="684.00" from="-678" to="-1102"/>
    <trip id="444" depart="685.00" from="-497" to="678"/>
    <trip id="445" depart="686.00" from="-270" to="2054"/>
    <trip id="446" depart="688.00" from="-270" to="-1102"/>
    <trip id="447" depart="696.00" from="-1926" to="270"/>
    <trip id="448" depart="700.00" from="1102" to="-1439"/>
    <trip id="449" depart="703.00" from="-678" to="270"/>
    <trip id="450" depart="704.00" from="1439" to="275"/>
    <trip id="451" depart="705.00" from="-497" to="2054"/>
    <trip id="452" depart="706.00" from="-301" to="270"/>
    <trip id="453" depart="707.00" from="1439" to="301"/>
    <trip id="454" depart="708.00" from="-301" to="270"/>
    <trip id="455" depart="710.00" from="1439" to="27"/>
    <trip id="456" depart="710.00" from="-270" to="678"/>
    <trip id="457" depart="715.00" from="-2054" to="-1439"/>
    <trip id="458" depart="715.00" from="-497" to="2054"/>
    <trip id="459" depart="716.00" from="-270" to="678"/>
    <trip id="460" depart="718.00" from="-301" to="-1439"/>
    <trip id="461" depart="719.00" from="-678" to="1926"/>
    <trip id="462" depart="721.00" from="-678" to="270"/>
    <trip id="463" depart="726.00" from="-275" to="2054"/>
    <trip id="464" depart="727.00" from="-301" to="-1102"/>
    <trip id="465" depart="729.00" from="-258" to="27"/>
    <trip id="466" depart="731.00" from="-2054" to="27"/>
    <trip id="467" depart="734.00" from="295" to="678"/>
    <trip id="468" depart="734.00" from="-275" to="1926"/>
    <trip id="469" depart="736.00" from="-1926" to="-1102"/>
    <trip id="470" depart="737.00" from="-301" to="497"/>
    <trip id="471" depart="739.00" from="-2054" to="270"/>
    <trip id="472" depart="741.00" from="-2054" to="-1102"/>
    <trip id="473" depart="744.00" from="-27" to="-1102"/>
    <trip id="474" depart="745.00" from="-270" to="-1102"/>
    <trip id="475" depart="745.00" from="-27" to="678"/>
    <trip id="476" depart="749.00" from="-2054" to="-1439"/>
    <trip id="477" depart="750.00" from="1102" to="301"/>
    <trip id="478" depart="750.00" from="-27" to="-1102"/>
    <trip id="479" depart="751.00" from="1439" to="678"/>
    <trip id="480" depart="752.00" from="-678" to="275"/>
    <trip id="481" depart="753.00" from="-275" to="-1439"/>
    <trip id="482" depart="756.00" from="-497" to="2054"/>
    <trip id="484" depart="760.00" from="-270" to="497"/>
    <trip id="485" depart="761.00" from="-2054" to="678"/>
    <trip id="486" depart="761.00" from="1439" to="2054"/>
    <trip id="487" depart="762.00" from="-270" to="-1102"/>
    <trip id="488" depart="764.00" from="-678" to="27"/>
    <trip id="489" depart="764.00" from="1102" to="270"/>
    <trip id="490" depart="767.00" from="-27" to="270"/>
    <trip id="491" depart="767.00" from="-497" to="301"/>
    <trip id="492" depart="767.00" from="-27" to="678"/>