<?xml version="1.0" encoding="UTF-8"?>

<!-- generated on 2025-03-09 19:55:14.088930 by randomTrips.py v1_19_0+1770-8bb5c24c187
<configuration>
    <net-file value="random_subnetwork_5.net.xml"/>
    <output-trip-file value="random_subnetwork_5_light.trips.xml"/>
    <fringe-factor value="100"/>
    <remove-loops value="True"/>
    <validate value="True"/>
    <period value="2.7724"/>
    <random-depart value="True"/>
    <binomial value="4"/>
</configuration>
-->

<!-- generated on 2025-03-09 19:55:14 by Eclipse SUMO duarouter Version v1_19_0+1770-8bb5c24c187
<configuration xmlns:xsi="http://www.w3.org/2001/XMLSchema-instance" xsi:noNamespaceSchemaLocation="http://sumo.dlr.de/xsd/duarouterConfiguration.xsd">

    <input>
        <net-file value="random_subnetwork_5.net.xml"/>
        <route-files value="random_subnetwork_5_light.trips.xml"/>
    </input>

    <output>
        <output-file value="random_subnetwork_5_light.trips.xml.tmp"/>
        <alternatives-output value="NUL"/>
        <write-trips value="true"/>
    </output>

    <processing>
        <remove-loops value="true"/>
    </processing>

    <time>
        <begin value="0.0"/>
        <end value="3600.0"/>
    </time>

    <report>
        <no-warnings value="true"/>
        <ignore-errors value="true"/>
        <no-step-log value="true"/>
    </report>

</configuration>
-->

<routes xmlns:xsi="http://www.w3.org/2001/XMLSchema-instance" xsi:noNamespaceSchemaLocation="http://sumo.dlr.de/xsd/routes_file.xsd">
    <trip id="0" depart="0.00" from="-1104" to="1102"/>
    <trip id="1" depart="1.00" from="-1677" to="-275"/>
    <trip id="2" depart="2.00" from="-1104" to="1690"/>
    <trip id="3" depart="3.00" from="-939" to="330"/>
    <trip id="4" depart="8.00" from="-1104" to="1102"/>
    <trip id="5" depart="8.00" from="-1104" to="330"/>
    <trip id="6" depart="13.00" from="-1568" to="1102"/>
    <trip id="7" depart="18.00" from="-1102" to="1690"/>
    <trip id="8" depart="19.00" from="-1568" to="939"/>
    <trip id="9" depart="20.00" from="-819" to="1690"/>
    <trip id="10" depart="26.00" from="-1568" to="-275"/>
    <trip id="11" depart="27.00" from="-939" to="939"/>
    <trip id="12" depart="27.00" from="-1677" to="-275"/>
    <trip id="13" depart="33.00" from="-531" to="1102"/>
    <trip id="14" depart="34.00" from="-1104" to="1690"/>
    <trip id="15" depart="41.00" from="-949" to="819"/>
    <trip id="16" depart="43.00" from="-1568" to="939"/>
    <trip id="17" depart="47.00" from="-1690" to="1568"/>
    <trip id="18" depart="48.00" from="-1102" to="1677"/>
    <trip id="19" depart="53.00" from="-1677" to="943"/>
    <trip id="20" depart="54.00" from="-1104" to="1102"/>
    <trip id="21" depart="56.00" from="-939" to="1102"/>
    <trip id="22" depart="61.00" from="-819" to="1690"/>
    <trip id="23" depart="62.00" from="-1085" to="819"/>
    <trip id="24" depart="69.00" from="-819" to="1104"/>
    <trip id="25" depart="73.00" from="-1102" to="1104"/>
    <trip id="26" depart="79.00" from="275" to="1677"/>
    <trip id="27" depart="80.00" from="-531" to="1104"/>
    <trip id="28" depart="84.00" from="-1104" to="1568"/>
    <trip id="29" depart="87.00" from="-1690" to="1690"/>
    <trip id="30" depart="88.00" from="-1104" to="1568"/>
    <trip id="31" depart="89.00" from="-1677" to="1690"/>
    <trip id="32" depart="90.00" from="-819" to="531"/>
    <trip id="33" depart="92.00" from="-1104" to="819"/>
    <trip id="34" depart="98.00" from="-1104" to="1102"/>
    <trip id="35" depart="99.00" from="-1677" to="1677"/>
    <trip id="36" depart="102.00" from="-1568" to="531"/>
    <trip id="37" depart="104.00" from="-1568" to="1690"/>
    <trip id="38" depart="106.00" from="-1677" to="1677"/>
    <trip id="39" depart="106.00" from="-531" to="1085"/>
    <trip id="40" depart="107.00" from="-1568" to="1102"/>
    <trip id="41" depart="108.00" from="-1085" to="1677"/>
    <trip id="42" depart="111.00" from="-1102" to="1085"/>
    <trip id="43" depart="114.00" from="-1568" to="1690"/>
    <trip id="44" depart="115.00" from="541" to="1690"/>
    <trip id="45" depart="123.00" from="-939" to="1102"/>
    <trip id="46" depart="124.00" from="-939" to="1085"/>
    <trip id="47" depart="126.00" from="275" to="-275"/>
    <trip id="48" depart="135.00" from="-1690" to="1102"/>
    <trip id="49" depart="138.00" from="275" to="1568"/>
    <trip id="50" depart="139.00" from="-531" to="-275"/>
    <trip id="51" depart="145.00" from="-1085" to="1568"/>
    <trip id="52" depart="149.00" from="-1102" to="1104"/>
    <trip id="53" depart="152.00" from="-1085" to="1568"/>
    <trip id="54" depart="155.00" from="-819" to="1568"/>
    <trip id="55" depart="176.00" from="-819" to="531"/>
    <trip id="56" depart="178.00" from="-1690" to="1677"/>
    <trip id="57" depart="184.00" from="-1085" to="1690"/>
    <trip id="58" depart="187.00" from="-939" to="1102"/>
    <trip id="59" depart="188.00" from="-939" to="1690"/>
    <trip id="60" depart="190.00" from="-939" to="939"/>
    <trip id="61" depart="196.00" from="-531" to="1568"/>
    <trip id="62" depart="201.00" from="-1108" to="531"/>
    <trip id="63" depart="207.00" from="-1690" to="1568"/>
    <trip id="64" depart="209.00" from="-939" to="1677"/>
    <trip id="65" depart="210.00" from="-939" to="939"/>
    <trip id="66" depart="215.00" from="-1568" to="1568"/>
    <trip id="67" depart="219.00" from="-819" to="1102"/>
    <trip id="68" depart="220.00" from="-819" to="1085"/>
    <trip id="69" depart="222.00" from="-939" to="1085"/>
    <trip id="70" depart="223.00" from="-1085" to="531"/>
    <trip id="71" depart="224.00" from="-819" to="1677"/>
    <trip id="72" depart="226.00" from="-819" to="819"/>
    <trip id="73" depart="227.00" from="-1677" to="1104"/>
    <trip id="74" depart="228.00" from="-1085" to="1690"/>
    <trip id="75" depart="228.00" from="-1104" to="1690"/>
    <trip id="76" depart="234.00" from="-939" to="-275"/>
    <trip id="77" depart="242.00" from="275" to="819"/>
    <trip id="78" depart="244.00" from="-939" to="1677"/>
    <trip id="79" depart="245.00" from="-819" to="1102"/>
    <trip id="80" depart="247.00" from="-1085" to="1085"/>
    <trip id="81" depart="250.00" from="-1677" to="1677"/>
    <trip id="82" depart="251.00" from="-1568" to="1102"/>
    <trip id="83" depart="252.00" from="-819" to="1085"/>
    <trip id="84" depart="253.00" from="-939" to="-275"/>
    <trip id="85" depart="253.00" from="275" to="819"/>
    <trip id="86" depart="255.00" from="-1568" to="819"/>
    <trip id="87" depart="256.00" from="-939" to="1102"/>
    <trip id="88" depart="265.00" from="-1677" to="1102"/>
    <trip id="89" depart="265.00" from="-1690" to="1104"/>
    <trip id="90" depart="266.00" from="-939" to="-275"/>
    <trip id="91" depart="269.00" from="-1102" to="833"/>
    <trip id="92" depart="274.00" from="-1085" to="1690"/>
    <trip id="93" depart="282.00" from="-939" to="330"/>
    <trip id="94" depart="283.00" from="-1568" to="531"/>
    <trip id="95" depart="295.00" from="-1085" to="1568"/>
    <trip id="96" depart="296.00" from="275" to="819"/>
    <trip id="97" depart="299.00" from="-1085" to="1102"/>
    <trip id="98" depart="301.00" from="-1677" to="531"/>
    <trip id="99" depart="302.00" from="-1690" to="1102"/>
    <trip id="100" depart="304.00" from="275" to="-275"/>
    <trip id="101" depart="306.00" from="-833" to="1104"/>
    <trip id="102" depart="308.00" from="-1690" to="819"/>
    <trip id="103" depart="310.00" from="-819" to="1568"/>
    <trip id="104" depart="310.00" from="-1104" to="-275"/>
    <trip id="105" depart="316.00" from="-531" to="819"/>
    <trip id="106" depart="317.00" from="-531" to="1102"/>
    <trip id="107" depart="318.00" from="-939" to="1104"/>
    <trip id="108" depart="320.00" from="-531" to="1104"/>
    <trip id="109" depart="321.00" from="-1085" to="531"/>
    <trip id="110" depart="329.00" from="-531" to="819"/>
    <trip id="111" depart="330.00" from="-1690" to="819"/>
    <trip id="112" depart="333.00" from="-1690" to="1104"/>
    <trip id="113" depart="334.00" from="-1568" to="949"/>
    <trip id="114" depart="335.00" from="275" to="1690"/>
    <trip id="115" depart="338.00" from="-1102" to="1085"/>
    <trip id="116" depart="344.00" from="-1085" to="1690"/>
    <trip id="117" depart="347.00" from="-1085" to="1568"/>
    <trip id="118" depart="355.00" from="275" to="1677"/>
    <trip id="119" depart="356.00" from="-1690" to="819"/>
    <trip id="120" depart="359.00" from="-1690" to="531"/>
    <trip id="121" depart="363.00" from="-1102" to="1104"/>
    <trip id="122" depart="369.00" from="-1677" to="939"/>
    <trip id="123" depart="372.00" from="275" to="949"/>
    <trip id="124" depart="372.00" from="-1568" to="1085"/>
    <trip id="125" depart="374.00" from="-1102" to="1085"/>
    <trip id="126" depart="387.00" from="-1677" to="531"/>
    <trip id="127" depart="388.00" from="-1690" to="939"/>
    <trip id="128" depart="390.00" from="-1690" to="1677"/>
    <trip id="129" depart="394.00" from="-1690" to="937"/>
    <trip id="130" depart="400.00" from="-531" to="1085"/>
    <trip id="131" depart="403.00" from="-531" to="1690"/>
    <trip id="132" depart="403.00" from="-1102" to="1102"/>
    <trip id="133" depart="409.00" from="-1677" to="531"/>
    <trip id="134" depart="409.00" from="-1690" to="-275"/>
    <trip id="135" depart="413.00" from="-1677" to="819"/>
    <trip id="136" depart="415.00" from="-1568" to="-275"/>
    <trip id="137" depart="415.00" from="275" to="-275"/>
    <trip id="138" depart="421.00" from="-1085" to="1102"/>
    <trip id="139" depart="425.00" from="-1104" to="330"/>
    <trip id="140" depart="425.00" from="-531" to="531"/>
    <trip id="141" depart="425.00" from="-819" to="1104"/>
    <trip id="142" depart="426.00" from="-1690" to="1102"/>
    <trip id="143" depart="429.00" from="275" to="819"/>
    <trip id="144" depart="440.00" from="275" to="939"/>
    <trip id="145" depart="453.00" from="-1085" to="819"/>
    <trip id="146" depart="455.00" from="-1690" to="1104"/>
    <trip id="147" depart="456.00" from="-1690" to="-275"/>
    <trip id="148" depart="457.00" from="-939" to="1690"/>
    <trip id="149" depart="463.00" from="-1085" to="1085"/>
    <trip id="150" depart="465.00" from="-1104" to="819"/>
    <trip id="151" depart="466.00" from="-1085" to="939"/>
    <trip id="152" depart="467.00" from="275" to="1104"/>
    <trip id="153" depart="468.00" from="-1102" to="1102"/>
    <trip id="154" depart="471.00" from="-1677" to="819"/>
    <trip id="155" depart="472.00" from="-1104" to="939"/>
    <trip id="156" depart="474.00" from="-531" to="531"/>
    <trip id="157" depart="475.00" from="-1102" to="531"/>
    <trip id="158" depart="476.00" from="-1568" to="1104"/>
    <trip id="159" depart="478.00" from="-1568" to="-275"/>
    <trip id="160" depart="479.00" from="275" to="939"/>
    <trip id="161" depart="481.00" from="-1677" to="1568"/>
    <trip id="162" depart="482.00" from="-1104" to="1102"/>
    <trip id="163" depart="494.00" from="-330" to="1568"/>
    <trip id="164" depart="497.00" from="-819" to="1690"/>
    <trip id="165" depart="498.00" from="275" to="1690"/>
    <trip id="166" depart="499.00" from="-1104" to="1677"/>
    <trip id="167" depart="502.00" from="-1102" to="1568"/>
    <trip id="168" depart="509.00" from="-531" to="1085"/>
    <trip id="169" depart="511.00" from="-1102" to="819"/>
    <trip id="170" depart="516.00" from="-1102" to="1085"/>
    <trip id="171" depart="520.00" from="-1568" to="-275"/>
    <trip id="172" depart="523.00" from="-1085" to="531"/>
    <trip id="173" depart="526.00" from="-819" to="1677"/>
    <trip id="174" depart="532.00" from="-1568" to="1102"/>
    <trip id="175" depart="541.00" from="-819" to="531"/>
    <trip id="176" depart="542.00" from="-1690" to="1102"/>
    <trip id="177" depart="545.00" from="-1102" to="531"/>
    <trip id="178" depart="546.00" from="275" to="1085"/>
    <trip id="179" depart="551.00" from="-1677" to="1085"/>
    <trip id="180" depart="552.00" from="-819" to="819"/>
    <trip id="181" depart="553.00" from="-1568" to="531"/>
    <trip id="182" depart="555.00" from="-531" to="1568"/>
    <trip id="183" depart="557.00" from="-1102" to="531"/>
    <trip id="184" depart="559.00" from="-1690" to="1677"/>
    <trip id="185" depart="562.00" from="275" to="939"/>
    <trip id="186" depart="566.00" from="-1085" to="1102"/>
    <trip id="187" depart="566.00" from="-1085" to="531"/>
    <trip id="188" depart="568.00" from="-1690" to="1690"/>
    <trip id="189" depart="570.00" from="-819" to="531"/>
    <trip id="190" depart="571.00" from="-1085" to="1568"/>
    <trip id="191" depart="576.00" from="-939" to="1102"/>
    <trip id="192" depart="576.00" from="-819" to="1677"/>
    <trip id="193" depart="576.00" from="-1677" to="1104"/>
    <trip id="194" depart="579.00" from="-939" to="1102"/>
    <trip id="195" depart="582.00" from="-1568" to="1568"/>
    <trip id="196" depart="584.00" from="-1677" to="1102"/>
    <trip id="197" depart="585.00" from="-1104" to="1677"/>
    <trip id="198" depart="588.00" from="-1677" to="1102"/>
    <trip id="199" depart="589.00" from="-531" to="819"/>
    <trip id="200" depart="590.00" from="-833" to="531"/>
    <trip id="201" depart="592.00" from="-1085" to="1085"/>
    <trip id="202" depart="593.00" from="-1690" to="1568"/>
    <trip id="203" depart="595.00" from="-1104" to="531"/>
    <trip id="204" depart="599.00" from="-939" to="1104"/>
    <trip id="205" depart="601.00" from="-1677" to="1568"/>
    <trip id="206" depart="603.00" from="-939" to="939"/>
    <trip id="207" depart="605.00" from="-1085" to="939"/>
    <trip id="208" depart="607.00" from="-1677" to="1085"/>
    <trip id="209" depart="608.00" from="-531" to="1085"/>
    <trip id="210" depart="609.00" from="-531" to="1102"/>
    <trip id="211" depart="610.00" from="-1104" to="1085"/>
    <trip id="212" depart="615.00" from="338" to="1677"/>
    <trip id="213" depart="617.00" from="-833" to="1102"/>
    <trip id="214" depart="620.00" from="-819" to="939"/>
    <trip id="215" depart="623.00" from="275" to="1085"/>
    <trip id="216" depart="625.00" from="-1690" to="939"/>
    <trip id="217" depart="633.00" from="-531" to="939"/>
    <trip id="218" depart="636.00" from="-819" to="1690"/>
    <trip id="219" depart="637.00" from="-1104" to="937"/>
    <trip id="220" depart="637.00" from="-1568" to="531"/>
    <trip id="221" depart="640.00" from="-939" to="1102"/>
    <trip id="222" depart="641.00" from="-1102" to="1104"/>
    <trip id="223" depart="643.00" from="275" to="1085"/>
    <trip id="224" depart="646.00" from="-1690" to="819"/>
    <trip id="225" depart="648.00" from="-1102" to="1102"/>
    <trip id="226" depart="648.00" from="-939" to="1104"/>
    <trip id="227" depart="652.00" from="-819" to="1690"/>
    <trip id="228" depart="652.00" from="-1568" to="1677"/>
    <trip id="229" depart="655.00" from="275" to="531"/>
    <trip id="230" depart="660.00" from="-1568" to="1104"/>
    <trip id="231" depart="666.00" from="-1104" to="1085"/>
    <trip id="232" depart="667.00" from="949" to="1104"/>
    <trip id="233" depart="668.00" from="-939" to="1102"/>
    <trip id="234" depart="675.00" from="-1102" to="819"/>
    <trip id="235" depart="678.00" from="-1568" to="1677"/>
    <trip id="236" depart="683.00" from="-819" to="531"/>
    <trip id="237" depart="683.00" from="275" to="1690"/>
    <trip id="238" depart="683.00" from="-1104" to="819"/>
    <trip id="239" depart="689.00" from="275" to="1690"/>
    <trip id="240" depart="694.00" from="-819" to="1677"/>
    <trip id="241" depart="699.00" from="-1568" to="531"/>
    <trip id="242" depart="702.00" from="-949" to="1568"/>
    <trip id="243" depart="703.00" from="-939" to="1085"/>
    <trip id="244" depart="706.00" from="-1104" to="531"/>
    <trip id="245" depart="707.00" from="-531" to="1690"/>
    <trip id="246" depart="708.00" from="-1104" to="1104"/>
    <trip id="247" depart="708.00" from="-1568" to="819"/>
    <trip id="248" depart="717.00" from="-939" to="1102"/>
    <trip id="249" depart="717.00" from="539" to="1690"/>
    <trip id="250" depart="718.00" from="-539" to="1568"/>
    <trip id="251" depart="724.00" from="-1690" to="1089"/>
    <trip id="252" depart="725.00" from="-531" to="939"/>
    <trip id="253" depart="726.00" from="-1690" to="531"/>
    <trip id="254" depart="728.00" from="-1104" to="819"/>
    <trip id="255" depart="730.00" from="-939" to="1690"/>
    <trip id="256" depart="734.00" from="275" to="1085"/>
    <trip id="257" depart="736.00" from="-531" to="819"/>
    <trip id="258" depart="738.00" from="-1104" to="1104"/>
    <trip id="259" depart="743.00" from="-531" to="1085"/>
    <trip id="260" depart="744.00" from="-1690" to="1102"/>
    <trip id="261" depart="744.00" from="-1104" to="1690"/>
    <trip id="262" depart="748.00" from="-1085" to="1690"/>
    <trip id="263" depart="750.00" from="-1104" to="1568"/>
    <trip id="264" depart="754.00" from="-1102" to="1085"/>
    <trip id="265" depart="759.00" from="275" to="819"/>
    <trip id="266" depart="773.00" from="-1102" to="1690"/>
    <trip id="267" depart="775.00" from="-939" to="-485"/>
    <trip id="268" depart="779.00" from="-1104" to="1690"/>
    <trip id="269" depart="787.00" from="275" to="1690"/>
    <trip id="270" depart="789.00" from="-1690" to="1568"/>
    <trip id="271" depart="792.00" from="-531" to="1568"/>
    <trip id="272" depart="796.00" from="275" to="1085"/>
    <trip id="273" depart="798.00" from="-1085" to="1690"/>
    <trip id="274" depart="802.00" from="-1085" to="531"/>
    <trip id="275" depart="804.00" from="-531" to="1677"/>
    <trip id="276" depart="805.00" from="275" to="541"/>
    <trip id="277" depart="806.00" from="-819" to="1568"/>
    <trip id="278" depart="811.00" from="-531" to="1677"/>
    <trip id="279" depart="816.00" from="-1089" to="531"/>
    <trip id="280" depart="821.00" from="-1104" to="1102"/>
    <trip id="281" depart="825.00" from="-1085" to="-275"/>
    <trip id="282" depart="826.00" from="-1690" to="1108"/>
    <trip id="283" depart="834.00" from="-1568" to="-275"/>
    <trip id="284" depart="836.00" from="275" to="1104"/>
    <trip id="285" depart="842.00" from="-531" to="1102"/>
    <trip id="286" depart="845.00" from="-1085" to="1677"/>
    <trip id="287" depart="846.00" from="-1690" to="-275"/>
    <trip id="288" depart="847.00" from="-819" to="1690"/>
    <trip id="289" depart="848.00" from="-1677" to="939"/>
    <trip id="290" depart="854.00" from="-819" to="1677"/>
    <trip id="291" depart="857.00" from="-1690" to="1102"/>
    <trip id="292" depart="862.00" from="-531" to="1690"/>
    <trip id="293" depart="871.00" from="-1085" to="1085"/>
    <trip id="294" depart="872.00" from="-1104" to="-275"/>
    <trip id="295" depart="872.00" from="-1568" to="939"/>
    <trip id="296" depart="875.00" from="-531" to="1677"/>
    <trip id="297" depart="876.00" from="-1104" to="1089"/>
    <trip id="298" depart="878.00" from="-1085" to="1102"/>
    <trip id="299" depart="881.00" from="-1104" to="939"/>
    <trip id="300" depart="885.00" from="-1102" to="-275"/>
    <trip id="301" depart="887.00" from="-939" to="1102"/>
    <trip id="302" depart="888.00" from="275" to="1568"/>
    <trip id="303" depart="894.00" from="-1677" to="1690"/>
    <trip id="304" depart="897.00" from="-939" to="1568"/>
    <trip id="305" depart="899.00" from="-1104" to="1677"/>
    <trip id="306" depart="909.00" from="-939" to="1568"/>
    <trip id="307" depart="911.00" from="-1102" to="819"/>
    <trip id="308" depart="917.00" from="-1102" to="1102"/>
    <trip id="309" depart="920.00" from="-819" to="1690"/>
    <trip id="310" depart="921.00" from="-1102" to="485"/>
    <trip id="311" depart="921.00" from="-939" to="1677"/>
    <trip id="312" depart="921.00" from="-1677" to="531"/>
    <trip id="313" depart="921.00" from="-1104" to="1085"/>
    <trip id="314" depart="924.00" from="-531" to="819"/>
    <trip id="315" depart="930.00" from="-939" to="819"/>
    <trip id="316" depart="930.00" from="275" to="939"/>
    <trip id="317" depart="931.00" from="-1677" to="1102"/>
    <trip id="318" depart="931.00" from="-1568" to="1568"/>
    <trip id="319" depart="938.00" from="-1085" to="1677"/>
    <trip id="320" depart="942.00" from="-819" to="-275"/>
    <trip id="321" depart="945.00" from="-1677" to="531"/>
    <trip id="322" depart="947.00" from="275" to="1677"/>
    <trip id="323" depart="951.00" from="-1085" to="531"/>
    <trip id="324" depart="952.00" from="-1102" to="-275"/>
    <trip id="325" depart="953.00" from="-531" to="531"/>
    <trip id="326" depart="960.00" from="-1102" to="1102"/>
    <trip id="327" depart="960.00" from="-531" to="1104"/>
    <trip id="328" depart="961.00" from="-939" to="531"/>
    <trip id="329" depart="964.00" from="-939" to="1085"/>
    <trip id="330" depart="968.00" from="275" to="-1092"/>
    <trip id="331" depart="968.00" from="-939" to="-275"/>
    <trip id="332" depart="970.00" from="-1085" to="1102"/>
    <trip id="333" depart="983.00" from="-939" to="1690"/>
    <trip id="334" depart="985.00" from="-1568" to="1085"/>
    <trip id="335" depart="990.00" from="-1085" to="531"/>
    <trip id="336" depart="992.00" from="-819" to="1104"/>
    <trip id="337" depart="993.00" from="-1690" to="1085"/>
    <trip id="338" depart="993.00" from="-819" to="1104"/>
    <trip id="339" depart="995.00" from="-1690" to="-275"/>
    <trip id="340" depart="996.00" from="-1690" to="531"/>
    <trip id="341" depart="998.00" from="-819" to="1104"/>
    <trip id="342" depart="999.00" from="-531" to="1568"/>
    <trip id="343" depart="1000.00" from="-1568" to="939"/>
    <trip id="344" depart="1001.00" from="-939" to="1085"/>
    <trip id="345" depart="1002.00" from="275" to="939"/>
    <trip id="346" depart="1003.00" from="-819" to="1085"/>
    <trip id="347" depart="1004.00" from="-1104" to="1677"/>
    <trip id="348" depart="1006.00" from="-1690" to="1690"/>
    <trip id="349" depart="1006.00" from="-1102" to="1102"/>
    <trip id="350" depart="1007.00" from="-531" to="-275"/>
    <trip id="351" depart="1008.00" from="-939" to="1690"/>
    <trip id="352" depart="1011.00" from="-1104" to="1677"/>
    <trip id="353" depart="1015.00" from="-1690" to="1102"/>
    <trip id="354" depart="1016.00" from="-1568" to="939"/>
    <trip id="355" depart="1031.00" from="-819" to="-275"/>
    <trip id="356" depart="1033.00" from="275" to="939"/>
    <trip id="357" depart="1034.00" from="-819" to="1104"/>
    <trip id="358" depart="1037.00" from="-541" to="1677"/>
    <trip id="359" depart="1039.00" from="-1104" to="1104"/>
    <trip id="360" depart="1040.00" from="-1690" to="1085"/>
    <trip id="361" depart="1053.00" from="-939" to="1102"/>
    <trip id="362" depart="1054.00" from="-531" to="1102"/>
    <trip id="363" depart="1056.00" from="-1102" to="1690"/>
    <trip id="364" depart="1056.00" from="-939" to="1690"/>
    <trip id="365" depart="1057.00" from="-1677" to="1085"/>
    <trip id="366" depart="1060.00" from="-1677" to="1677"/>
    <trip id="367" depart="1068.00" from="-1085" to="1690"/>
    <trip id="368" depart="1071.00" from="-1104" to="1102"/>
    <trip id="369" depart="1072.00" from="-531" to="1104"/>
    <trip id="370" depart="1073.00" from="-1102" to="1104"/>
    <trip id="371" depart="1079.00" from="275" to="1690"/>
    <trip id="372" depart="1081.00" from="-1677" to="1568"/>
    <trip id="373" depart="1084.00" from="-1677" to="1568"/>
    <trip id="374" depart="1088.00" from="275" to="1690"/>
    <trip id="375" depart="1089.00" from="-1677" to="-275"/>
    <trip id="376" depart="1092.00" from="-531" to="1677"/>
    <trip id="377" depart="1094.00" from="-531" to="1104"/>
    <trip id="378" depart="1096.00" from="-1677" to="1085"/>
    <trip id="379" depart="1104.00" from="-1677" to="1104"/>
    <trip id="380" depart="1111.00" from="275" to="1677"/>
    <trip id="381" depart="1113.00" from="-1102" to="819"/>
    <trip id="382" depart="1116.00" from="-1102" to="1085"/>
    <trip id="383" depart="1119.00" from="-1085" to="939"/>
    <trip id="384" depart="1121.00" from="-819" to="819"/>
    <trip id="385" depart="1126.00" from="-1085" to="531"/>
    <trip id="386" depart="1127.00" from="-531" to="1568"/>
    <trip id="387" depart="1135.00" from="-1089" to="-275"/>
    <trip id="388" depart="1136.00" from="-531" to="531"/>
    <trip id="389" depart="1136.00" from="-1568" to="531"/>
    <trip id="390" depart="1138.00" from="275" to="531"/>
    <trip id="391" depart="1139.00" from="-1677" to="1085"/>
    <trip id="392" depart="1139.00" from="330" to="819"/>
    <trip id="393" depart="1140.00" from="-1690" to="819"/>
    <trip id="394" depart="1141.00" from="-1102" to="1085"/>
    <trip id="395" depart="1144.00" from="-1102" to="939"/>
    <trip id="396" depart="1150.00" from="275" to="1568"/>
    <trip id="397" depart="1151.00" from="275" to="1690"/>
    <trip id="398" depart="1157.00" from="-1089" to="-533"/>
    <trip id="399" depart="1158.00" from="-1085" to="939"/>
    <trip id="400" depart="1164.00" from="-819" to="1104"/>
    <trip id="401" depart="1165.00" from="275" to="1102"/>
    <trip id="402" depart="1168.00" from="-1690" to="1102"/>
    <trip id="403" depart="1173.00" from="275" to="819"/>
    <trip id="404" depart="1176.00" from="-1677" to="531"/>
    <trip id="405" depart="1177.00" from="-1568" to="1085"/>
    <trip id="406" depart="1178.00" from="-531" to="531"/>
    <trip id="407" depart="1180.00" from="-1690" to="1104"/>
    <trip id="408" depart="1181.00" from="-1085" to="531"/>
    <trip id="409" depart="1181.00" from="-1102" to="819"/>
    <trip id="410" depart="1183.00" from="-1102" to="1690"/>
    <trip id="411" depart="1184.00" from="-819" to="1085"/>
    <trip id="412" depart="1184.00" from="-1568" to="531"/>
    <trip id="413" depart="1192.00" from="-1102" to="819"/>
    <trip id="414" depart="1193.00" from="-1677" to="-275"/>
    <trip id="415" depart="1193.00" from="-531" to="819"/>
    <trip id="416" depart="1196.00" from="-1102" to="1568"/>
    <trip id="417" depart="1197.00" from="-1104" to="1085"/>
    <trip id="418" depart="1201.00" from="-531" to="1102"/>
    <trip id="419" depart="1203.00" from="-819" to="939"/>
    <trip id="420" depart="1211.00" from="-1102" to="819"/>
    <trip id="421" depart="1214.00" from="-939" to="1568"/>
    <trip id="422" depart="1217.00" from="275" to="-275"/>
    <trip id="423" depart="1218.00" from="-1690" to="1568"/>
    <trip id="424" depart="1220.00" from="-819" to="939"/>
    <trip id="425" depart="1222.00" from="-1677" to="531"/>
    <trip id="426" depart="1224.00" from="275" to="1104"/>
    <trip id="427" depart="1224.00" from="-1677" to="1102"/>
    <trip id="428" depart="1226.00" from="-939" to="531"/>
    <trip id="429" depart="1226.00" from="275" to="1690"/>
    <trip id="430" depart="1228.00" from="-819" to="1085"/>
    <trip id="431" depart="1232.00" from="-1568" to="1568"/>
    <trip id="432" depart="1235.00" from="-1108" to="1568"/>
    <trip id="433" depart="1235.00" from="275" to="1102"/>
    <trip id="434" depart="1239.00" from="-939" to="1102"/>
    <trip id="435" depart="1244.00" from="-1568" to="1568"/>
    <trip id="436" depart="1247.00" from="-1568" to="1085"/>
    <trip id="437" depart="1248.00" from="-1568" to="1104"/>
    <trip id="438" depart="1250.00" from="-819" to="939"/>
    <trip id="439" depart="1256.00" from="-531" to="1677"/>
    <trip id="440" depart="1257.00" from="-1690" to="1568"/>
    <trip id="441" depart="1257.00" from="-1690" to="1085"/>
    <trip id="442" depart="1261.00" from="-819" to="1568"/>
    <trip id="443" depart="1263.00" from="-1104" to="1568"/>
    <trip id="444" depart="1264.00" from="275" to="531"/>
    <trip id="445" depart="1264.00" from="-1677" to="939"/>
    <trip id="446" depart="1267.00" from="-939" to="819"/>
    <trip id="447" depart="1268.00" from="-1085" to="1102"/>
    <trip id="448" depart="1271.00" from="-819" to="1677"/>
    <trip id="449" depart="1274.00" from="-1568" to="819"/>
    <trip id="450" depart="1280.00" from="-1690" to="1104"/>
    <trip id="451" depart="1284.00" from="-939" to="939"/>
    <trip id="452" depart="1287.00" from="-939" to="1102"/>
    <trip id="453" depart="1288.00" from="-541" to="531"/>
    <trip id="454" depart="1288.00" from="-819" to="531"/>
    <trip id="455" depart="1289.00" from="-1102" to="531"/>
    <trip id="456" depart="1289.00" from="-1102" to="1102"/>
    <trip id="457" depart="1289.00" from="-531" to="531"/>
    <trip id="458" depart="1294.00" from="-1104" to="1085"/>
    <trip id="459" depart="1301.00" from="-1568" to="1085"/>
    <trip id="460" depart="1303.00" from="-939" to="1568"/>
    <trip id="461" depart="1305.00" from="-1102" to="1104"/>
    <trip id="462" depart="1306.00" from="275" to="1104"/>
    <trip id="463" depart="1313.00" from="-1085" to="1690"/>
    <trip id="464" depart="1314.00" from="-819" to="531"/>
    <trip id="465" depart="1317.00" from="-1677" to="939"/>
    <trip id="466" depart="1318.00" from="-1690" to="819"/>
    <trip id="467" depart="1324.00" from="-1085" to="819"/>
    <trip id="468" depart="1324.00" from="1092" to="1104"/>
    <trip id="469" depart="1327.00" from="-1568" to="1104"/>
    <trip id="470" depart="1327.00" from="-1568" to="1568"/>
    <trip id="471" depart="1334.00" from="-833" to="1104"/>
    <trip id="472" depart="1336.00" from="-939" to="1568"/>
    <trip id="473" depart="1339.00" from="-819" to="819"/>
    <trip id="474" depart="1345.00" from="-1104" to="1568"/>
    <trip id="475" depart="1348.00" from="-1102" to="1085"/>
    <trip id="476" depart="1350.00" from="-939" to="-275"/>
    <trip id="477" depart="1362.00" from="275" to="1690"/>
    <trip id="478" depart="1369.00" from="-939" to="819"/>
    <trip id="479" depart="1373.00" from="-1085" to="1690"/>
    <trip id="480" depart="1375.00" from="-1102" to="1677"/>
    <trip id="481" depart="1383.00" from="-1568" to="939"/>