<?xml version="1.0" encoding="UTF-8"?>

<!-- generated on 2025-03-10 19:20:46.744411 by randomTrips.py v1_19_0+1770-8bb5c24c187
<configuration>
    <net-file value="random_subnetwork_5.net.xml"/>
    <output-trip-file value="random_subnetwork_5_light.trips.xml"/>
    <fringe-factor value="100"/>
    <min-distance value="800.0"/>
    <remove-loops value="True"/>
    <validate value="True"/>
    <period value="2.567739160596715"/>
    <random-depart value="True"/>
    <binomial value="10"/>
</configuration>
-->

<!-- generated on 2025-03-10 19:20:46 by Eclipse SUMO duarouter Version v1_19_0+1770-8bb5c24c187
<configuration xmlns:xsi="http://www.w3.org/2001/XMLSchema-instance" xsi:noNamespaceSchemaLocation="http://sumo.dlr.de/xsd/duarouterConfiguration.xsd">

    <input>
        <net-file value="random_subnetwork_5.net.xml"/>
        <route-files value="random_subnetwork_5_light.trips.xml"/>
    </input>

    <output>
        <output-file value="random_subnetwork_5_light.trips.xml.tmp"/>
        <alternatives-output value="NUL"/>
        <write-trips value="true"/>
    </output>

    <processing>
        <remove-loops value="true"/>
    </processing>

    <time>
        <begin value="0.0"/>
        <end value="3600.0"/>
    </time>

    <report>
        <no-warnings value="true"/>
        <ignore-errors value="true"/>
        <no-step-log value="true"/>
    </report>

</configuration>
-->

<routes xmlns:xsi="http://www.w3.org/2001/XMLSchema-instance" xsi:noNamespaceSchemaLocation="http://sumo.dlr.de/xsd/routes_file.xsd">
    <trip id="0" depart="0.00" from="-1573" to="1085"/>
    <trip id="1" depart="0.00" from="-1568" to="1573"/>
    <trip id="2" depart="0.00" from="-1568" to="1690"/>
    <trip id="3" depart="1.00" from="-939" to="1690"/>
    <trip id="4" depart="5.00" from="-1573" to="1085"/>
    <trip id="5" depart="9.00" from="-939" to="1690"/>
    <trip id="6" depart="11.00" from="275" to="819"/>
    <trip id="7" depart="25.00" from="1222" to="1104"/>
    <trip id="8" depart="27.00" from="-939" to="1690"/>
    <trip id="9" depart="27.00" from="1222" to="1677"/>
    <trip id="10" depart="29.00" from="-939" to="1104"/>
    <trip id="11" depart="31.00" from="-1568" to="1104"/>
    <trip id="12" depart="33.00" from="-819" to="1104"/>
    <trip id="13" depart="35.00" from="-1573" to="1568"/>
    <trip id="14" depart="37.00" from="-1568" to="1573"/>
    <trip id="15" depart="38.00" from="-939" to="531"/>
    <trip id="16" depart="43.00" from="-1573" to="531"/>
    <trip id="17" depart="44.00" from="-1573" to="1690"/>
    <trip id="18" depart="45.00" from="-1085" to="1568"/>
    <trip id="19" depart="46.00" from="-531" to="949"/>
    <trip id="20" depart="47.00" from="-1104" to="-275"/>
    <trip id="21" depart="48.00" from="-1573" to="1690"/>
    <trip id="22" depart="52.00" from="-1568" to="531"/>
    <trip id="23" depart="53.00" from="-939" to="1573"/>
    <trip id="24" depart="56.00" from="275" to="1677"/>
    <trip id="25" depart="61.00" from="-1690" to="1677"/>
    <trip id="26" depart="75.00" from="-1690" to="1677"/>
    <trip id="27" depart="77.00" from="-1085" to="1677"/>
    <trip id="28" depart="80.00" from="-939" to="819"/>
    <trip id="30" depart="88.00" from="1222" to="1677"/>
    <trip id="31" depart="91.00" from="-1677" to="1568"/>
    <trip id="32" depart="92.00" from="-939" to="1085"/>
    <trip id="33" depart="93.00" from="-1104" to="1085"/>
    <trip id="34" depart="94.00" from="-1568" to="1104"/>
    <trip id="35" depart="102.00" from="275" to="819"/>
    <trip id="36" depart="103.00" from="1222" to="1677"/>
    <trip id="37" depart="103.00" from="-939" to="1085"/>
    <trip id="38" depart="106.00" from="-1573" to="1085"/>
    <trip id="39" depart="107.00" from="-939" to="-275"/>
    <trip id="40" depart="107.00" from="275" to="819"/>
    <trip id="41" depart="108.00" from="-1573" to="531"/>
    <trip id="42" depart="121.00" from="-1573" to="531"/>
    <trip id="43" depart="126.00" from="-1085" to="1573"/>
    <trip id="44" depart="126.00" from="275" to="819"/>
    <trip id="45" depart="127.00" from="1222" to="1677"/>
    <trip id="46" depart="128.00" from="-1104" to="1568"/>
    <trip id="47" depart="130.00" from="-939" to="1104"/>
    <trip id="48" depart="137.00" from="-1677" to="1568"/>
    <trip id="49" depart="142.00" from="-531" to="1104"/>
    <trip id="50" depart="147.00" from="-819" to="1573"/>
    <trip id="51" depart="151.00" from="275" to="1085"/>
    <trip id="52" depart="157.00" from="-1690" to="939"/>
    <trip id="53" depart="158.00" from="-1085" to="1104"/>
    <trip id="54" depart="165.00" from="-531" to="939"/>
    <trip id="55" depart="168.00" from="-531" to="-275"/>
    <trip id="56" depart="172.00" from="-1085" to="-275"/>
    <trip id="57" depart="178.00" from="-1677" to="531"/>
    <trip id="58" depart="180.00" from="-1085" to="1104"/>
    <trip id="59" depart="181.00" from="-1568" to="-275"/>
    <trip id="60" depart="181.00" from="-1677" to="1085"/>
    <trip id="61" depart="188.00" from="275" to="939"/>
    <trip id="62" depart="193.00" from="1222" to="939"/>
    <trip id="63" depart="193.00" from="-1690" to="1568"/>
    <trip id="64" depart="194.00" from="-531" to="-1222"/>
    <trip id="66" depart="197.00" from="-1677" to="531"/>
    <trip id="67" depart="198.00" from="275" to="1104"/>
    <trip id="68" depart="201.00" from="-1573" to="939"/>
    <trip id="69" depart="203.00" from="-531" to="1568"/>
    <trip id="70" depart="203.00" from="-531" to="1104"/>
    <trip id="71" depart="213.00" from="-1568" to="1573"/>
    <trip id="72" depart="214.00" from="-1104" to="1568"/>
    <trip id="73" depart="217.00" from="-531" to="1568"/>
    <trip id="74" depart="221.00" from="-1104" to="531"/>
    <trip id="75" depart="222.00" from="-939" to="1104"/>
    <trip id="76" depart="230.00" from="-939" to="531"/>
    <trip id="77" depart="232.00" from="275" to="1085"/>
    <trip id="78" depart="234.00" from="-1690" to="-275"/>
    <trip id="79" depart="235.00" from="-819" to="533"/>
    <trip id="80" depart="236.00" from="-819" to="1568"/>
    <trip id="81" depart="241.00" from="-1085" to="-1222"/>
    <trip id="82" depart="246.00" from="-939" to="1085"/>
    <trip id="83" depart="250.00" from="-1568" to="1677"/>
    <trip id="84" depart="251.00" from="-1677" to="1085"/>
    <trip id="85" depart="252.00" from="-939" to="-275"/>
    <trip id="86" depart="258.00" from="-1677" to="1568"/>
    <trip id="87" depart="258.00" from="1222" to="939"/>
    <trip id="88" depart="259.00" from="-1677" to="-275"/>
    <trip id="89" depart="260.00" from="-819" to="-275"/>
    <trip id="90" depart="261.00" from="-1573" to="1568"/>
    <trip id="91" depart="265.00" from="-819" to="939"/>
    <trip id="92" depart="267.00" from="275" to="1085"/>
    <trip id="93" depart="267.00" from="-531" to="939"/>
    <trip id="94" depart="271.00" from="-531" to="939"/>
    <trip id="95" depart="273.00" from="-1677" to="531"/>
    <trip id="96" depart="275.00" from="-1104" to="1085"/>
    <trip id="97" depart="277.00" from="-1573" to="1568"/>
    <trip id="98" depart="285.00" from="-1573" to="1085"/>
    <trip id="99" depart="286.00" from="1222" to="1104"/>
    <trip id="100" depart="288.00" from="-1568" to="819"/>
    <trip id="101" depart="289.00" from="-1104" to="819"/>
    <trip id="102" depart="291.00" from="-939" to="531"/>
    <trip id="103" depart="291.00" from="275" to="1690"/>
    <trip id="104" depart="291.00" from="-1568" to="531"/>
    <trip id="105" depart="296.00" from="-819" to="1677"/>
    <trip id="106" depart="301.00" from="-1573" to="531"/>
    <trip id="107" depart="302.00" from="-1085" to="1104"/>
    <trip id="108" depart="306.00" from="1222" to="1085"/>
    <trip id="109" depart="306.00" from="-819" to="1568"/>
    <trip id="110" depart="310.00" from="1222" to="1690"/>
    <trip id="111" depart="315.00" from="-1677" to="-1222"/>
    <trip id="112" depart="319.00" from="-1102" to="1677"/>
    <trip id="113" depart="330.00" from="-1104" to="1690"/>
    <trip id="114" depart="331.00" from="1222" to="531"/>
    <trip id="115" depart="332.00" from="-1568" to="1677"/>
    <trip id="116" depart="338.00" from="-819" to="1568"/>
    <trip id="117" depart="340.00" from="-939" to="819"/>
    <trip id="118" depart="343.00" from="-819" to="1573"/>
    <trip id="119" depart="346.00" from="-531" to="1573"/>
    <trip id="120" depart="350.00" from="-1568" to="1085"/>
    <trip id="121" depart="352.00" from="-1690" to="-1222"/>
    <trip id="122" depart="361.00" from="-1085" to="1677"/>
    <trip id="123" depart="362.00" from="-1690" to="939"/>
    <trip id="124" depart="368.00" from="-1104" to="1690"/>
    <trip id="125" depart="371.00" from="275" to="1568"/>
    <trip id="126" depart="371.00" from="-531" to="1573"/>
    <trip id="127" depart="373.00" from="-531" to="1573"/>
    <trip id="128" depart="373.00" from="-1104" to="939"/>
    <trip id="129" depart="377.00" from="-1104" to="-1222"/>
    <trip id="130" depart="378.00" from="1222" to="1085"/>
    <trip id="131" depart="383.00" from="-1568" to="1677"/>
    <trip id="132" depart="388.00" from="-1104" to="819"/>
    <trip id="133" depart="392.00" from="-939" to="1690"/>
    <trip id="134" depart="393.00" from="-1677" to="531"/>
    <trip id="135" depart="394.00" from="-1573" to="1568"/>
    <trip id="136" depart="396.00" from="1222" to="819"/>
    <trip id="137" depart="396.00" from="275" to="939"/>
    <trip id="138" depart="396.00" from="-1568" to="-1222"/>
    <trip id="139" depart="399.00" from="-1085" to="1573"/>
    <trip id="140" depart="402.00" from="-1690" to="939"/>
    <trip id="141" depart="404.00" from="-1690" to="1677"/>
    <trip id="142" depart="408.00" from="-819" to="1568"/>
    <trip id="143" depart="409.00" from="1222" to="531"/>
    <trip id="144" depart="418.00" from="1222" to="1690"/>
    <trip id="145" depart="419.00" from="-1568" to="531"/>
    <trip id="146" depart="422.00" from="-531" to="-275"/>
    <trip id="147" depart="426.00" from="-1573" to="939"/>
    <trip id="148" depart="427.00" from="-819" to="-275"/>
    <trip id="149" depart="428.00" from="-1568" to="1573"/>
    <trip id="150" depart="428.00" from="-1085" to="-275"/>
    <trip id="151" depart="429.00" from="-1677" to="1085"/>
    <trip id="152" depart="429.00" from="1222" to="1690"/>
    <trip id="153" depart="431.00" from="-1568" to="1573"/>
    <trip id="154" depart="432.00" from="-531" to="1102"/>
    <trip id="155" depart="439.00" from="-939" to="-1222"/>
    <trip id="156" depart="449.00" from="1222" to="1085"/>
    <trip id="157" depart="450.00" from="1222" to="1690"/>
    <trip id="158" depart="455.00" from="-1085" to="1677"/>
    <trip id="159" depart="456.00" from="-1568" to="1104"/>
    <trip id="160" depart="457.00" from="-819" to="1104"/>
    <trip id="161" depart="457.00" from="-1573" to="1690"/>
    <trip id="162" depart="460.00" from="275" to="1677"/>
    <trip id="163" depart="460.00" from="-1677" to="1573"/>
    <trip id="164" depart="462.00" from="-1690" to="1573"/>
    <trip id="165" depart="463.00" from="275" to="1690"/>
    <trip id="166" depart="465.00" from="-531" to="1573"/>
    <trip id="167" depart="470.00" from="-1690" to="1104"/>
    <trip id="168" depart="475.00" from="-1104" to="-275"/>
    <trip id="169" depart="477.00" from="275" to="1568"/>
    <trip id="170" depart="480.00" from="-939" to="1573"/>
    <trip id="171" depart="485.00" from="275" to="531"/>
    <trip id="172" depart="487.00" from="-1104" to="-275"/>
    <trip id="173" depart="491.00" from="275" to="1568"/>
    <trip id="174" depart="494.00" from="-1104" to="-275"/>
    <trip id="175" depart="494.00" from="-1104" to="939"/>
    <trip id="176" depart="501.00" from="275" to="539"/>
    <trip id="177" depart="505.00" from="-1085" to="-275"/>
    <trip id="178" depart="506.00" from="-1104" to="1690"/>
    <trip id="179" depart="510.00" from="-1690" to="-1222"/>
    <trip id="180" depart="511.00" from="-1108" to="1573"/>
    <trip id="181" depart="512.00" from="-1568" to="-275"/>
    <trip id="182" depart="521.00" from="-1085" to="1573"/>
    <trip id="183" depart="522.00" from="-819" to="-1222"/>
    <trip id="184" depart="522.00" from="1222" to="1568"/>
    <trip id="185" depart="523.00" from="-1677" to="1085"/>
    <trip id="186" depart="534.00" from="-1677" to="1573"/>
    <trip id="187" depart="535.00" from="-1573" to="1690"/>
    <trip id="188" depart="538.00" from="-531" to="1568"/>
    <trip id="189" depart="543.00" from="275" to="819"/>
    <trip id="190" depart="548.00" from="-1690" to="1568"/>
    <trip id="191" depart="551.00" from="1222" to="1085"/>
    <trip id="192" depart="555.00" from="-1568" to="1085"/>
    <trip id="193" depart="565.00" from="-1677" to="1573"/>
    <trip id="194" depart="566.00" from="-531" to="819"/>
    <trip id="195" depart="568.00" from="-1573" to="531"/>
    <trip id="196" depart="568.00" from="1222" to="1104"/>
    <trip id="197" depart="569.00" from="1222" to="1677"/>
    <trip id="198" depart="574.00" from="275" to="531"/>
    <trip id="199" depart="578.00" from="-1104" to="-275"/>
    <trip id="200" depart="578.00" from="-531" to="819"/>
    <trip id="201" depart="583.00" from="275" to="1677"/>
    <trip id="202" depart="586.00" from="1222" to="819"/>
    <trip id="203" depart="587.00" from="-819" to="531"/>
    <trip id="204" depart="595.00" from="-939" to="1085"/>
    <trip id="205" depart="600.00" from="-1568" to="1690"/>
    <trip id="206" depart="603.00" from="275" to="819"/>
    <trip id="207" depart="604.00" from="275" to="1690"/>
    <trip id="208" depart="613.00" from="-1104" to="-275"/>
    <trip id="209" depart="615.00" from="-1104" to="-1222"/>
    <trip id="210" depart="616.00" from="-1104" to="-275"/>
    <trip id="211" depart="617.00" from="275" to="819"/>
    <trip id="212" depart="620.00" from="-1573" to="1085"/>
    <trip id="213" depart="623.00" from="1222" to="1104"/>
    <trip id="214" depart="623.00" from="-1085" to="1568"/>
    <trip id="215" depart="630.00" from="-1104" to="-1222"/>
    <trip id="216" depart="632.00" from="275" to="1690"/>
    <trip id="217" depart="633.00" from="-1573" to="1690"/>
    <trip id="218" depart="634.00" from="-1568" to="531"/>
    <trip id="219" depart="648.00" from="-939" to="1085"/>
    <trip id="220" depart="648.00" from="-1677" to="1568"/>
    <trip id="221" depart="650.00" from="-1085" to="1568"/>
    <trip id="222" depart="654.00" from="-1573" to="939"/>
    <trip id="223" depart="654.00" from="-531" to="819"/>
    <trip id="224" depart="657.00" from="-1085" to="1573"/>
    <trip id="225" depart="658.00" from="1222" to="1690"/>
    <trip id="226" depart="659.00" from="-1690" to="939"/>
    <trip id="227" depart="659.00" from="-1573" to="939"/>
    <trip id="228" depart="665.00" from="-1568" to="-1222"/>
    <trip id="229" depart="665.00" from="-1677" to="-1222"/>
    <trip id="230" depart="668.00" from="-1573" to="819"/>
    <trip id="231" depart="669.00" from="-1677" to="531"/>
    <trip id="232" depart="673.00" from="-1085" to="1573"/>
    <trip id="233" depart="675.00" from="-1568" to="1085"/>
    <trip id="234" depart="676.00" from="-1568" to="1677"/>
    <trip id="235" depart="677.00" from="-1568" to="-275"/>
    <trip id="236" depart="677.00" from="1222" to="939"/>
    <trip id="237" depart="677.00" from="-819" to="1568"/>
    <trip id="238" depart="683.00" from="-1568" to="1085"/>
    <trip id="239" depart="686.00" from="-1568" to="1085"/>
    <trip id="240" depart="687.00" from="-1573" to="819"/>
    <trip id="242" depart="691.00" from="-1104" to="939"/>
    <trip id="243" depart="693.00" from="-819" to="1573"/>
    <trip id="244" depart="696.00" from="-1104" to="-1222"/>
    <trip id="245" depart="702.00" from="-1104" to="939"/>
    <trip id="246" depart="703.00" from="-1690" to="1568"/>
    <trip id="247" depart="704.00" from="1092" to="1690"/>
    <trip id="248" depart="704.00" from="-939" to="531"/>
    <trip id="249" depart="712.00" from="275" to="1677"/>
    <trip id="250" depart="713.00" from="1222" to="1104"/>
    <trip id="251" depart="714.00" from="-1568" to="1677"/>
    <trip id="252" depart="717.00" from="-1677" to="819"/>
    <trip id="253" depart="719.00" from="-1690" to="939"/>
    <trip id="254" depart="720.00" from="275" to="1568"/>
    <trip id="255" depart="721.00" from="-1568" to="1677"/>
    <trip id="256" depart="722.00" from="-939" to="1690"/>
    <trip id="257" depart="725.00" from="-939" to="-275"/>
    <trip id="258" depart="727.00" from="-531" to="939"/>
    <trip id="259" depart="728.00" from="-531" to="939"/>
    <trip id="260" depart="731.00" from="-1677" to="-1222"/>
    <trip id="261" depart="739.00" from="-1085" to="1573"/>
    <trip id="262" depart="747.00" from="-819" to="939"/>
    <trip id="263" depart="748.00" from="-1568" to="1573"/>
    <trip id="264" depart="750.00" from="-531" to="1677"/>
    <trip id="265" depart="752.00" from="-531" to="1573"/>
    <trip id="266" depart="754.00" from="-1677" to="1573"/>
    <trip id="267" depart="754.00" from="-1573" to="939"/>
    <trip id="268" depart="759.00" from="-531" to="-1222"/>
    <trip id="269" depart="760.00" from="-1677" to="-275"/>
    <trip id="270" depart="763.00" from="-1690" to="-275"/>
    <trip id="271" depart="771.00" from="-1690" to="1677"/>
    <trip id="272" depart="772.00" from="-1690" to="-1222"/>
    <trip id="273" depart="776.00" from="-939" to="1085"/>
    <trip id="274" depart="779.00" from="275" to="939"/>
    <trip id="275" depart="782.00" from="-531" to="819"/>
    <trip id="276" depart="787.00" from="-1104" to="-1222"/>
    <trip id="277" depart="791.00" from="-1573" to="1677"/>
    <trip id="278" depart="795.00" from="-1104" to="-275"/>
    <trip id="279" depart="797.00" from="1222" to="531"/>
    <trip id="280" depart="798.00" from="275" to="939"/>
    <trip id="281" depart="800.00" from="-1677" to="-275"/>
    <trip id="282" depart="803.00" from="-819" to="1104"/>
    <trip id="284" depart="809.00" from="275" to="1568"/>
    <trip id="285" depart="810.00" from="-1677" to="-1222"/>
    <trip id="286" depart="811.00" from="-939" to="1573"/>
    <trip id="287" depart="811.00" from="1222" to="1690"/>
    <trip id="288" depart="815.00" from="-1085" to="1677"/>
    <trip id="289" depart="815.00" from="-531" to="1677"/>
    <trip id="290" depart="816.00" from="-1677" to="1085"/>
    <trip id="291" depart="825.00" from="1222" to="1104"/>
    <trip id="292" depart="827.00" from="-819" to="1104"/>
    <trip id="293" depart="827.00" from="-531" to="1568"/>
    <trip id="294" depart="831.00" from="-531" to="1104"/>
    <trip id="295" depart="832.00" from="-1104" to="1568"/>
    <trip id="297" depart="837.00" from="-1573" to="1568"/>
    <trip id="298" depart="838.00" from="-1677" to="1085"/>
    <trip id="299" depart="839.00" from="-1104" to="1568"/>
    <trip id="300" depart="843.00" from="-819" to="939"/>
    <trip id="301" depart="846.00" from="-1085" to="939"/>
    <trip id="302" depart="847.00" from="-531" to="-1222"/>
    <trip id="303" depart="848.00" from="-1085" to="1573"/>
    <trip id="304" depart="853.00" from="-1690" to="1677"/>
    <trip id="305" depart="853.00" from="-939" to="1104"/>
    <trip id="306" depart="854.00" from="-939" to="819"/>
    <trip id="307" depart="859.00" from="-1085" to="-1222"/>
    <trip id="308" depart="865.00" from="-1568" to="541"/>
    <trip id="309" depart="868.00" from="-819" to="1568"/>
    <trip id="310" depart="870.00" from="-1568" to="-1222"/>
    <trip id="311" depart="873.00" from="-1690" to="1104"/>
    <trip id="312" depart="876.00" from="-1573" to="1690"/>
    <trip id="313" depart="877.00" from="275" to="819"/>
    <trip id="314" depart="881.00" from="-1085" to="1104"/>
    <trip id="315" depart="882.00" from="-1568" to="1104"/>
    <trip id="316" depart="887.00" from="-531" to="939"/>
    <trip id="317" depart="888.00" from="-939" to="819"/>
    <trip id="319" depart="894.00" from="-1690" to="1677"/>
    <trip id="320" depart="895.00" from="-1573" to="1690"/>
    <trip id="321" depart="908.00" from="-1573" to="1085"/>
    <trip id="322" depart="910.00" from="275" to="939"/>
    <trip id="323" depart="910.00" from="1222" to="939"/>
    <trip id="324" depart="910.00" from="1222" to="1690"/>
    <trip id="325" depart="913.00" from="-1085" to="-275"/>
    <trip id="326" depart="918.00" from="-1573" to="1568"/>
    <trip id="327" depart="919.00" from="-531" to="819"/>
    <trip id="328" depart="922.00" from="-531" to="1104"/>
    <trip id="329" depart="926.00" from="-531" to="-1222"/>
    <trip id="330" depart="929.00" from="-1690" to="1677"/>
    <trip id="332" depart="935.00" from="-1104" to="1085"/>
    <trip id="333" depart="935.00" from="-1677" to="1690"/>
    <trip id="334" depart="943.00" from="275" to="939"/>
    <trip id="335" depart="943.00" from="-1677" to="1568"/>
    <trip id="336" depart="946.00" from="-819" to="-1222"/>
    <trip id="337" depart="947.00" from="-1085" to="1677"/>
    <trip id="338" depart="954.00" from="-939" to="531"/>
    <trip id="339" depart="956.00" from="-1085" to="939"/>
    <trip id="340" depart="958.00" from="1222" to="1677"/>
    <trip id="341" depart="959.00" from="-1573" to="1085"/>
    <trip id="342" depart="960.00" from="-1690" to="1568"/>
    <trip id="343" depart="963.00" from="-819" to="531"/>
    <trip id="344" depart="969.00" from="-1677" to="-275"/>
    <trip id="345" depart="977.00" from="-1677" to="1573"/>
    <trip id="346" depart="978.00" from="-1677" to="1573"/>
    <trip id="347" depart="978.00" from="-1677" to="1085"/>
    <trip id="348" depart="978.00" from="-1568" to="1677"/>
    <trip id="349" depart="979.00" from="-1104" to="531"/>
    <trip id="350" depart="981.00" from="1222" to="819"/>
    <trip id="351" depart="983.00" from="-1573" to="1677"/>
    <trip id="352" depart="987.00" from="1222" to="1568"/>
    <trip id="353" depart="989.00" from="-1104" to="1690"/>
    <trip id="354" depart="989.00" from="-819" to="1677"/>
    <trip id="355" depart="990.00" from="-819" to="-275"/>
    <trip id="356" depart="990.00" from="-943" to="1568"/>
    <trip id="357" depart="992.00" from="-1690" to="939"/>
    <trip id="358" depart="994.00" from="-1104" to="819"/>
    <trip id="359" depart="999.00" from="275" to="1568"/>
    <trip id="360" depart="1000.00" from="-1573" to="1677"/>
    <trip id="361" depart="1004.00" from="-1573" to="1677"/>
    <trip id="362" depart="1005.00" from="-939" to="1085"/>
    <trip id="363" depart="1007.00" from="275" to="1085"/>
    <trip id="364" depart="1010.00" from="-1677" to="-275"/>
    <trip id="365" depart="1011.00" from="-1573" to="1690"/>
    <trip id="366" depart="1011.00" from="-1677" to="1573"/>
    <trip id="367" depart="1012.00" from="1222" to="939"/>
    <trip id="368" depart="1013.00" from="-531" to="-275"/>
    <trip id="369" depart="1013.00" from="275" to="1677"/>
    <trip id="370" depart="1022.00" from="1222" to="939"/>
    <trip id="371" depart="1023.00" from="-1573" to="1568"/>
    <trip id="372" depart="1029.00" from="-1568" to="1104"/>
    <trip id="373" depart="1031.00" from="275" to="1104"/>
    <trip id="374" depart="1038.00" from="-1690" to="-275"/>
    <trip id="375" depart="1045.00" from="-819" to="1104"/>
    <trip id="376" depart="1049.00" from="-939" to="-1222"/>
    <trip id="377" depart="1051.00" from="-1104" to="1568"/>
    <trip id="378" depart="1052.00" from="-1677" to="-1222"/>
    <trip id="379" depart="1055.00" from="-531" to="-1222"/>
    <trip id="380" depart="1055.00" from="-1568" to="1085"/>
    <trip id="381" depart="1056.00" from="-531" to="819"/>
    <trip id="382" depart="1061.00" from="1222" to="1104"/>
    <trip id="383" depart="1066.00" from="1222" to="939"/>
    <trip id="384" depart="1066.00" from="-1690" to="939"/>
    <trip id="385" depart="1071.00" from="275" to="1568"/>
    <trip id="386" depart="1071.00" from="-939" to="-275"/>
    <trip id="387" depart="1076.00" from="-939" to="1104"/>
    <trip id="388" depart="1079.00" from="-1568" to="1677"/>
    <trip id="389" depart="1082.00" from="-1085" to="939"/>
    <trip id="390" depart="1089.00" from="-531" to="-1222"/>
    <trip id="391" depart="1098.00" from="-1568" to="-1222"/>
    <trip id="392" depart="1106.00" from="-1677" to="-275"/>
    <trip id="393" depart="1109.00" from="-531" to="939"/>
    <trip id="394" depart="1110.00" from="-1677" to="-1222"/>
    <trip id="395" depart="1112.00" from="-1085" to="1573"/>
    <trip id="396" depart="1117.00" from="-531" to="1104"/>
    <trip id="397" depart="1121.00" from="275" to="1085"/>
    <trip id="398" depart="1121.00" from="-1568" to="531"/>
    <trip id="399" depart="1135.00" from="-939" to="-275"/>
    <trip id="400" depart="1142.00" from="1222" to="1104"/>
    <trip id="401" depart="1146.00" from="-819" to="539"/>
    <trip id="402" depart="1148.00" from="1222" to="1568"/>
    <trip id="403" depart="1151.00" from="-1677" to="819"/>
    <trip id="404" depart="1151.00" from="-1573" to="531"/>
    <trip id="405" depart="1153.00" from="1222" to="1677"/>
    <trip id="406" depart="1155.00" from="-939" to="1085"/>
    <trip id="407" depart="1156.00" from="-1104" to="1085"/>
    <trip id="408" depart="1160.00" from="-939" to="-1222"/>
    <trip id="409" depart="1163.00" from="275" to="1677"/>
    <trip id="410" depart="1163.00" from="-939" to="1690"/>
    <trip id="411" depart="1164.00" from="275" to="1677"/>
    <trip id="412" depart="1166.00" from="-1677" to="-275"/>
    <trip id="413" depart="1169.00" from="-1690" to="-275"/>
    <trip id="414" depart="1173.00" from="-1568" to="-275"/>
    <trip id="415" depart="1173.00" from="-819" to="531"/>
    <trip id="416" depart="1176.00" from="-1573" to="1677"/>
    <trip id="417" depart="1180.00" from="-939" to="1573"/>
    <trip id="418" depart="1181.00" from="-819" to="1677"/>
    <trip id="419" depart="1183.00" from="-1690" to="1568"/>
    <trip id="420" depart="1187.00" from="-1085" to="-1222"/>
    <trip id="422" depart="1188.00" from="-1104" to="-275"/>
    <trip id="423" depart="1190.00" from="-531" to="-1222"/>
    <trip id="424" depart="1191.00" from="-1677" to="1573"/>
    <trip id="425" depart="1191.00" from="1222" to="1690"/>
    <trip id="426" depart="1200.00" from="-939" to="1573"/>
    <trip id="427" depart="1201.00" from="-1085" to="-275"/>
    <trip id="428" depart="1203.00" from="-1677" to="1573"/>
    <trip id="429" depart="1204.00" from="-1085" to="1573"/>
    <trip id="430" depart="1205.00" from="-1573" to="531"/>
    <trip id="431" depart="1205.00" from="-1104" to="819"/>
    <trip id="432" depart="1208.00" from="-939" to="531"/>
    <trip id="433" depart="1210.00" from="-819" to="-275"/>
    <trip id="434" depart="1213.00" from="-1104" to="1690"/>
    <trip id="435" depart="1213.00" from="275" to="819"/>
    <trip id="436" depart="1216.00" from="-819" to="939"/>
    <trip id="437" depart="1217.00" from="-1085" to="-1222"/>
    <trip id="438" depart="1225.00" from="275" to="1568"/>
    <trip id="439" depart="1228.00" from="-1573" to="1677"/>
    <trip id="440" depart="1235.00" from="275" to="1085"/>
    <trip id="441" depart="1242.00" from="1222" to="531"/>
    <trip id="442" depart="1242.00" from="-1690" to="-1222"/>
    <trip id="443" depart="1243.00" from="-819" to="1568"/>
    <trip id="444" depart="1246.00" from="-1677" to="1690"/>
    <trip id="445" depart="1247.00" from="-1690" to="1573"/>
    <trip id="446" depart="1250.00" from="-1568" to="1573"/>
    <trip id="447" depart="1250.00" from="-1677" to="531"/>
    <trip id="448" depart="1251.00" from="-939" to="531"/>
    <trip id="449" depart="1254.00" from="-1568" to="1573"/>
    <trip id="450" depart="1260.00" from="-1568" to="819"/>
    <trip id="451" depart="1261.00" from="-531" to="1573"/>
    <trip id="452" depart="1262.00" from="-1104" to="-275"/>
    <trip id="453" depart="1263.00" from="-531" to="939"/>
    <trip id="454" depart="1265.00" from="1222" to="1690"/>
    <trip id="455" depart="1269.00" from="-1104" to="1085"/>
    <trip id="456" depart="1269.00" from="1222" to="1085"/>
    <trip id="457" depart="1270.00" from="-1677" to="1573"/>
    <trip id="458" depart="1272.00" from="-1573" to="1690"/>
    <trip id="459" depart="1275.00" from="-1568" to="819"/>
    <trip id="460" depart="1279.00" from="-1104" to="531"/>
    <trip id="461" depart="1280.00" from="-1568" to="531"/>
    <trip id="462" depart="1286.00" from="-1573" to="939"/>
    <trip id="463" depart="1288.00" from="1222" to="1104"/>
    <trip id="464" depart="1290.00" from="275" to="1104"/>
    <trip id="465" depart="1295.00" from="-1568" to="1690"/>
    <trip id="466" depart="1296.00" from="-939" to="531"/>
    <trip id="467" depart="1300.00" from="-1104" to="1085"/>
    <trip id="468" depart="1307.00" from="275" to="1104"/>
    <trip id="469" depart="1308.00" from="-1568" to="-275"/>
    <trip id="470" depart="1314.00" from="-819" to="939"/>
    <trip id="471" depart="1316.00" from="-939" to="1690"/>
    <trip id="472" depart="1317.00" from="-1104" to="819"/>
    <trip id="473" depart="1326.00" from="-1085" to="-1222"/>
    <trip id="474" depart="1326.00" from="-949" to="-1222"/>
    <trip id="476" depart="1333.00" from="-531" to="1677"/>
    <trip id="477" depart="1334.00" from="-1677" to="531"/>
    <trip id="478" depart="1338.00" from="-1085" to="1568"/>
    <trip id="479" depart="1340.00" from="-819" to="-1222"/>
    <trip id="480" depart="1345.00" from="-1568" to="819"/>
    <trip id="481" depart="1345.00" from="-1104" to="531"/>
    <trip id="482" depart="1347.00" from="-1677" to="531"/>
    <trip id="483" depart="1351.00" from="-1104" to="1568"/>
    <trip id="484" depart="1356.00" from="485" to="1677"/>
    <trip id="485" depart="1361.00" from="-531" to="-275"/>
    <trip id="486" depart="1363.00" from="1222" to="1104"/>
    <trip id="487" depart="1363.00" from="-1573" to="1568"/>
    <trip id="488" depart="1364.00" from="-939" to="531"/>