<?xml version="1.0" encoding="UTF-8"?>

<!-- generated on 2025-03-10 19:20:47.605681 by randomTrips.py v1_19_0+1770-8bb5c24c187
<configuration>
    <net-file value="random_subnetwork_5.net.xml"/>
    <output-trip-file value="random_subnetwork_5_heavy.trips.xml"/>
    <fringe-factor value="100"/>
    <min-distance value="800.0"/>
    <remove-loops value="True"/>
    <validate value="True"/>
    <period value="1.5406434963580289"/>
    <random-depart value="True"/>
    <binomial value="10"/>
</configuration>
-->

<!-- generated on 2025-03-10 19:20:47 by Eclipse SUMO duarouter Version v1_19_0+1770-8bb5c24c187
<configuration xmlns:xsi="http://www.w3.org/2001/XMLSchema-instance" xsi:noNamespaceSchemaLocation="http://sumo.dlr.de/xsd/duarouterConfiguration.xsd">

    <input>
        <net-file value="random_subnetwork_5.net.xml"/>
        <route-files value="random_subnetwork_5_heavy.trips.xml"/>
    </input>

    <output>
        <output-file value="routes.rou.xml"/>
        <alternatives-output value="NUL"/>
    </output>

    <processing>
        <remove-loops value="true"/>
    </processing>

    <time>
        <begin value="0.0"/>
        <end value="3600.0"/>
    </time>

    <report>
        <no-warnings value="true"/>
        <ignore-errors value="true"/>
        <no-step-log value="true"/>
    </report>

</configuration>
-->

<routes xmlns:xsi="http://www.w3.org/2001/XMLSchema-instance" xsi:noNamespaceSchemaLocation="http://sumo.dlr.de/xsd/routes_file.xsd">
    <vehicle id="0" depart="0.00">
        <route edges="-1573 -1102 1092 -338 330 833 1085"/>
    </vehicle>
    <vehicle id="1" depart="0.00">
        <route edges="-1568 -1089 -937 -533 -485 -1092 1102 1573"/>
    </vehicle>
    <vehicle id="2" depart="0.00">
        <route edges="-1568 -1089 -937 -533 -485 541 1690"/>
    </vehicle>
    <vehicle id="3" depart="1.00">
        <route edges="-939 -533 -485 541 1690"/>
    </vehicle>
    <vehicle id="4" depart="3.00">
        <route edges="-1568 -1089 -937 -533 539 949 1104"/>
    </vehicle>
    <vehicle id="5" depart="5.00">
        <route edges="-1573 -1102 1092 -338 330 833 1085"/>
    </vehicle>
    <vehicle id="6" depart="7.00">
        <route edges="-1085 -833 -330 338 485 533 937 1089 1568"/>
    </vehicle>
    <vehicle id="7" depart="8.00">
        <route edges="-939 -533 -485 541 1690"/>
    </vehicle>
    <vehicle id="8" depart="10.00">
        <route edges="275 330 819"/>
    </vehicle>
    <vehicle id="9" depart="10.00">
        <route edges="1222 -1102 1092 485 533 939"/>
    </vehicle>
    <vehicle id="11" depart="17.00">
        <route edges="-1568 -1089 -937 -533 531"/>
    </vehicle>
    <vehicle id="12" depart="19.00">
        <route edges="-531 539 943 1102 1573"/>
    </vehicle>
    <vehicle id="13" depart="23.00">
        <route edges="1222 -1102 -943 949 1104"/>
    </vehicle>
    <vehicle id="14" depart="25.00">
        <route edges="-939 -533 -485 541 1690"/>
    </vehicle>
    <vehicle id="15" depart="25.00">
        <route edges="1222 -1102 -943 949 1108 1677"/>
    </vehicle>
    <vehicle id="16" depart="28.00">
        <route edges="-939 -533 539 949 1104"/>
    </vehicle>
    <vehicle id="17" depart="29.00">
        <route edges="-1568 -1089 -937 -533 539 949 1104"/>
    </vehicle>
    <vehicle id="18" depart="32.00">
        <route edges="-819 -330 338 485 539 949 1104"/>
    </vehicle>
    <vehicle id="19" depart="34.00">
        <route edges="-1573 -1102 1092 485 533 937 1089 1568"/>
    </vehicle>
    <vehicle id="20" depart="35.00">
        <route edges="-1568 -1089 -937 -533 -485 -1092 1102 1573"/>
    </vehicle>
    <vehicle id="21" depart="36.00">
        <route edges="-939 -533 531"/>
    </vehicle>
    <vehicle id="22" depart="37.00">
        <route edges="-1568 -1089 -937 -533 -485 -338 330 819"/>
    </vehicle>
    <vehicle id="23" depart="40.00">
        <route edges="-1677 -1108 -949 943 1102 1573"/>
    </vehicle>
    <vehicle id="24" depart="41.00">
        <route edges="-1573 -1102 -943 -539 531"/>
    </vehicle>
    <vehicle id="25" depart="42.00">
        <route edges="-1573 -1102 1092 541 1690"/>
    </vehicle>
    <vehicle id="26" depart="43.00">
        <route edges="-1085 -833 -330 338 485 533 937 1089 1568"/>
    </vehicle>
    <vehicle id="27" depart="44.00">
        <route edges="-531 539 949"/>
    </vehicle>
    <vehicle id="28" depart="45.00">
        <route edges="-1104 -949 -539 -485 -338 -275"/>
    </vehicle>
    <vehicle id="29" depart="46.00">
        <route edges="-1573 -1102 1092 541 1690"/>
    </vehicle>
    <vehicle id="30" depart="50.00">
        <route edges="-1568 -1089 -937 -533 531"/>
    </vehicle>
    <vehicle id="31" depart="51.00">
        <route edges="-939 -533 -485 -1092 1102 1573"/>
    </vehicle>
    <vehicle id="32" depart="54.00">
        <route edges="275 338 485 539 949 1108 1677"/>
    </vehicle>
    <vehicle id="33" depart="55.00">
        <route edges="1222 -1102 1092 485 533 937 1089 1568"/>
    </vehicle>
    <vehicle id="34" depart="56.00">
        <route edges="-1573 -1102 1092 485 533 939"/>
    </vehicle>
    <vehicle id="35" depart="58.00">
        <route edges="-1690 -541 -1092 -943 949 1108 1677"/>
    </vehicle>
    <vehicle id="36" depart="61.00">
        <route edges="-1568 -1089 -937 -533 -485 -1092 1102 -1222"/>
    </vehicle>
    <vehicle id="37" depart="62.00">
        <route edges="-939 -533 -485 -1092 1102 1573"/>
    </vehicle>
    <vehicle id="38" depart="70.00">
        <route edges="-939 -533 -485 541 1690"/>
    </vehicle>
    <vehicle id="39" depart="71.00">
        <route edges="-1690 -541 -1092 -943 949 1108 1677"/>
    </vehicle>
    <vehicle id="40" depart="73.00">
        <route edges="-1085 -833 -330 338 485 539 949 1108 1677"/>
    </vehicle>
    <vehicle id="41" depart="74.00">
        <route edges="-939 -533 539 949 1104"/>
    </vehicle>
    <vehicle id="42" depart="76.00">
        <route edges="-939 -533 -485 -338 330 819"/>
    </vehicle>
    <vehicle id="43" depart="78.00">
        <route edges="-531 539 943 1102 1573"/>
    </vehicle>
    <vehicle id="45" depart="84.00">
        <route edges="1222 -1102 -943 949 1108 1677"/>
    </vehicle>
    <vehicle id="46" depart="84.00">
        <route edges="1222 -1102 1092 485 533 937"/>
    </vehicle>
    <vehicle id="47" depart="86.00">
        <route edges="-1677 -1108 -949 -539 533 937 1089 1568"/>
    </vehicle>
    <vehicle id="48" depart="88.00">
        <route edges="-939 -533 -485 -338 330 833 1085"/>
    </vehicle>
    <vehicle id="49" depart="89.00">
        <route edges="-1104 -949 -539 -485 -338 330 833 1085"/>
    </vehicle>
    <vehicle id="50" depart="89.00">
        <route edges="-1568 -1089 -937 -533 539 949 1104"/>
    </vehicle>
    <vehicle id="51" depart="89.00">
        <route edges="-939 -533 -485 -1092 1102 1573"/>
    </vehicle>
    <vehicle id="52" depart="90.00">
        <route edges="-939 -533 -485 -338 330 819"/>
    </vehicle>
    <vehicle id="53" depart="91.00">
        <route edges="-1690 -541 485 533 937 1089 1568"/>
    </vehicle>
    <vehicle id="54" depart="97.00">
        <route edges="275 330 819"/>
    </vehicle>
    <vehicle id="55" depart="98.00">
        <route edges="1222 -1102 -943 949 1108 1677"/>
    </vehicle>
    <vehicle id="56" depart="98.00">
        <route edges="-939 -533 -485 -338 330 833 1085"/>
    </vehicle>
    <vehicle id="57" depart="99.00">
        <route edges="-819 -330 338 -1092 1102 1573"/>
    </vehicle>
    <vehicle id="58" depart="100.00">
        <route edges="-1085 -833 -330 338 485 539 949 1104"/>
    </vehicle>
    <vehicle id="59" depart="101.00">
        <route edges="-939 -533 -485 -338 -275"/>
    </vehicle>
    <vehicle id="60" depart="102.00">
        <route edges="-1085 -833 -330 338 485 533 939"/>
    </vehicle>
    <vehicle id="61" depart="102.00">
        <route edges="-1573 -1102 -943 -539 531"/>
    </vehicle>
    <vehicle id="62" depart="107.00">
        <route edges="-1690 -541 -1092 -943 949 1104"/>
    </vehicle>
    <vehicle id="63" depart="107.00">
        <route edges="1222 -1102 1092 -338 330 819"/>
    </vehicle>
    <vehicle id="64" depart="108.00">
        <route edges="-1104 -949 -539 -485 -338 330 819"/>
    </vehicle>
    <vehicle id="65" depart="114.00">
        <route edges="-1573 -1102 -943 -539 531"/>
    </vehicle>
    <vehicle id="66" depart="119.00">
        <route edges="-1085 -833 -330 338 -1092 1102 1573"/>
    </vehicle>
    <vehicle id="67" depart="119.00">
        <route edges="275 330 819"/>
    </vehicle>
    <vehicle id="68" depart="120.00">
        <route edges="1222 -1102 -943 949 1108 1677"/>
    </vehicle>
    <vehicle id="69" depart="121.00">
        <route edges="-1677 -1108 -949 -539 531"/>
    </vehicle>
    <vehicle id="70" depart="122.00">
        <route edges="-1104 -949 -539 533 937 1089 1568"/>
    </vehicle>
    <vehicle id="71" depart="123.00">
        <route edges="-939 -533 539 949 1104"/>
    </vehicle>
    <vehicle id="72" depart="124.00">
        <route edges="-1104 -949 -539 531"/>
    </vehicle>
    <vehicle id="73" depart="124.00">
        <route edges="-1568 -1089 -937 -533 -485 -1092 1102 -1222"/>
    </vehicle>
    <vehicle id="74" depart="128.00">
        <route edges="1222 -1102 -943 949 1104"/>
    </vehicle>
    <vehicle id="75" depart="129.00">
        <route edges="-1677 -1108 -949 -539 533 937 1089 1568"/>
    </vehicle>
    <vehicle id="76" depart="134.00">
        <route edges="-531 539 949 1104"/>
    </vehicle>
    <vehicle id="77" depart="137.00">
        <route edges="-1104 -949 -539 -485 -338 -275"/>
    </vehicle>
    <vehicle id="78" depart="139.00">
        <route edges="-819 -330 338 -1092 1102 1573"/>
    </vehicle>
    <vehicle id="79" depart="140.00">
        <route edges="-1677 -1108 -949 943 1102 1573"/>
    </vehicle>
    <vehicle id="80" depart="143.00">
        <route edges="275 330 833 1085"/>
    </vehicle>
    <vehicle id="81" depart="143.00">
        <route edges="-819 -330 338 -1092 1102 1573"/>
    </vehicle>
    <vehicle id="82" depart="146.00">
        <route edges="-1690 -541 485 533 937 1089 1568"/>
    </vehicle>
    <vehicle id="83" depart="148.00">
        <route edges="-1690 -541 485 533 939"/>
    </vehicle>
    <vehicle id="84" depart="149.00">
        <route edges="-1085 -833 -330 338 485 539 949 1104"/>
    </vehicle>
    <vehicle id="85" depart="150.00">
        <route edges="-1104 -949 -539 -485 -338 330 833 1085"/>
    </vehicle>
    <vehicle id="86" depart="155.00">
        <route edges="-1677 -1108 -949 943 1092 541 1690"/>
    </vehicle>
    <vehicle id="87" depart="156.00">
        <route edges="-531 533 939"/>
    </vehicle>
    <vehicle id="88" depart="158.00">
        <route edges="-531 -485 -338 -275"/>
    </vehicle>
    <vehicle id="89" depart="162.00">
        <route edges="-1085 -833 -330 -275"/>
    </vehicle>
    <vehicle id="90" depart="165.00">
        <route edges="-531 539 943 1102 1573"/>
    </vehicle>
    <vehicle id="91" depart="166.00">
        <route edges="1222 -1102 -943 -539 531"/>
    </vehicle>
    <vehicle id="92" depart="167.00">
        <route edges="533 939"/>
    </vehicle>
    <vehicle id="93" depart="167.00">
        <route edges="-1677 -1108 -949 -539 531"/>
    </vehicle>
    <vehicle id="94" depart="169.00">
        <route edges="-1085 -833 -330 338 485 539 949 1104"/>
    </vehicle>
    <vehicle id="95" depart="170.00">
        <route edges="-1568 -1089 -937 -533 -485 -338 -275"/>
    </vehicle>
    <vehicle id="96" depart="170.00">
        <route edges="-1677 -1108 -949 -539 -485 -338 330 833 1085"/>
    </vehicle>
    <vehicle id="97" depart="171.00">
        <route edges="-1690 -541 -1092 -943 949 1104"/>
    </vehicle>
    <vehicle id="98" depart="172.00">
        <route edges="275 330 819"/>
    </vehicle>
    <vehicle id="99" depart="176.00">
        <route edges="275 338 485 533 939"/>
    </vehicle>
    <vehicle id="100" depart="181.00">
        <route edges="275 338 541 1690"/>
    </vehicle>
    <vehicle id="101" depart="182.00">
        <route edges="-1690 -541 485 533 937 1089 1568"/>
    </vehicle>
    <vehicle id="102" depart="183.00">
        <route edges="-531 539 943 1102 -1222"/>
    </vehicle>
    <vehicle id="104" depart="185.00">
        <route edges="-1085 -833 -330 -275"/>
    </vehicle>
    <vehicle id="105" depart="186.00">
        <route edges="-1568 -1089 -937 -533 -485 -338 330 819"/>
    </vehicle>
    <vehicle id="106" depart="186.00">
        <route edges="-1085 -833 -330 338 485 533 939"/>
    </vehicle>
    <vehicle id="107" depart="187.00">
        <route edges="275 338 485 539 949 1104"/>
    </vehicle>
    <vehicle id="108" depart="189.00">
        <route edges="-1677 -1108 -949 -539 -485 -338 330 819"/>
    </vehicle>
    <vehicle id="109" depart="189.00">
        <route edges="-1573 -1102 1092 485 533 939"/>
    </vehicle>
    <vehicle id="110" depart="191.00">
        <route edges="-531 533 937 1089 1568"/>
    </vehicle>
    <vehicle id="111" depart="191.00">
        <route edges="-531 539 949 1104"/>
    </vehicle>
    <vehicle id="112" depart="193.00">
        <route edges="-1677 -1108 -949 -539 533 937 1089 1568"/>
    </vehicle>
    <vehicle id="113" depart="200.00">
        <route edges="275 338 541 1690"/>
    </vehicle>
    <vehicle id="114" depart="200.00">
        <route edges="-1568 -1089 -937 -533 -485 -1092 1102 1573"/>
    </vehicle>
    <vehicle id="115" depart="201.00">
        <route edges="-1104 -949 -539 533 937 1089 1568"/>
    </vehicle>
    <vehicle id="116" depart="204.00">
        <route edges="-531 533 937 1089 1568"/>
    </vehicle>
    <vehicle id="117" depart="205.00">
        <route edges="-1104 -949 -539 -485 -338 330 819"/>
    </vehicle>
    <vehicle id="118" depart="209.00">
        <route edges="-1677 -1108 -949 943 1102 -1222"/>
    </vehicle>
    <vehicle id="119" depart="210.00">
        <route edges="-939 -533 539 949 1104"/>
    </vehicle>
    <vehicle id="120" depart="211.00">
        <route edges="-937 -533 -485 -1092 1102 1573"/>
    </vehicle>
    <vehicle id="121" depart="214.00">
        <route edges="-531 539 949 1104"/>
    </vehicle>
    <vehicle id="122" depart="217.00">
        <route edges="-939 -533 531"/>
    </vehicle>
    <vehicle id="123" depart="217.00">
        <route edges="-1677 -1108 -949 -539 -485 -338 330 833 1085"/>
    </vehicle>
    <vehicle id="124" depart="218.00">
        <route edges="-1104 -949 -539 531"/>
    </vehicle>
    <vehicle id="125" depart="219.00">
        <route edges="275 330 833 1085"/>
    </vehicle>
    <vehicle id="126" depart="221.00">
        <route edges="-1690 -541 -338 -275"/>
    </vehicle>
    <vehicle id="127" depart="221.00">
        <route edges="-819 -330 338 485 533"/>
    </vehicle>
    <vehicle id="128" depart="223.00">
        <route edges="-819 -330 338 485 533 937 1089 1568"/>
    </vehicle>
    <vehicle id="129" depart="226.00">
        <route edges="1222 -1102 1092 485 533 939"/>
    </vehicle>
    <vehicle id="130" depart="227.00">
        <route edges="-1085 -833 -330 338 -1092 1102 -1222"/>
    </vehicle>
    <vehicle id="131" depart="230.00">
        <route edges="-1085 -833 -330 338 485 533 937 1089 1568"/>
    </vehicle>
    <vehicle id="132" depart="232.00">
        <route edges="-939 -533 -485 -338 330 833 1085"/>
    </vehicle>
    <vehicle id="133" depart="232.00">
        <route edges="-819 -330 338 485 539 949 1108 1677"/>
    </vehicle>
    <vehicle id="134" depart="233.00">
        <route edges="1222 -1102 1092 -338 330 833 1085"/>
    </vehicle>
    <vehicle id="135" depart="236.00">
        <route edges="-1568 -1089 -937 -533 539 949 1108 1677"/>
    </vehicle>
    <vehicle id="136" depart="237.00">
        <route edges="-1677 -1108 -949 -539 -485 -338 330 833 1085"/>
    </vehicle>
    <vehicle id="137" depart="237.00">
        <route edges="-939 -533 -485 -338 -275"/>
    </vehicle>
    <vehicle id="138" depart="238.00">
        <route edges="-1104 -949 -539 533 939"/>
    </vehicle>
    <vehicle id="139" depart="242.00">
        <route edges="1222 -1102 -943 949 1104"/>
    </vehicle>
    <vehicle id="140" depart="243.00">
        <route edges="-1677 -1108 -949 -539 533 937 1089 1568"/>
    </vehicle>
    <vehicle id="141" depart="243.00">
        <route edges="1222 -1102 1092 485 533 939"/>
    </vehicle>
    <vehicle id="142" depart="244.00">
        <route edges="-1677 -1108 -949 -539 -485 -338 -275"/>
    </vehicle>
    <vehicle id="143" depart="245.00">
        <route edges="-1690 -541 -338 -275"/>
    </vehicle>
    <vehicle id="144" depart="245.00">
        <route edges="-819 -330 -275"/>
    </vehicle>
    <vehicle id="145" depart="245.00">
        <route edges="-1573 -1102 1092 485 533 937 1089 1568"/>
    </vehicle>
    <vehicle id="146" depart="246.00">
        <route edges="-1568 -1089 -937 -533 -485 -338 330 819"/>
    </vehicle>
    <vehicle id="148" depart="248.00">
        <route edges="1222 -1102 -943 -539 531"/>
    </vehicle>
    <vehicle id="149" depart="249.00">
        <route edges="-819 -330 338 485 533 939"/>
    </vehicle>
    <vehicle id="150" depart="251.00">
        <route edges="275 330 833 1085"/>
    </vehicle>
    <vehicle id="151" depart="251.00">
        <route edges="-531 533 939"/>
    </vehicle>
    <vehicle id="152" depart="254.00">
        <route edges="-531 533 939"/>
    </vehicle>
    <vehicle id="153" depart="257.00">
        <route edges="-1677 -1108 -949 -539 531"/>
    </vehicle>
    <vehicle id="154" depart="259.00">
        <route edges="-1104 -949 -539 -485 -338 330 833 1085"/>
    </vehicle>
    <vehicle id="155" depart="260.00">
        <route edges="-531 -485 -338 330 819"/>
    </vehicle>
    <vehicle id="156" depart="261.00">
        <route edges="-1573 -1102 1092 485 533 937 1089 1568"/>
    </vehicle>
    <vehicle id="157" depart="262.00">
        <route edges="-939 -533 -485 541 1690"/>
    </vehicle>
    <vehicle id="158" depart="269.00">
        <route edges="-1573 -1102 1092 -338 330 833 1085"/>
    </vehicle>
    <vehicle id="159" depart="269.00">
        <route edges="1222 -1102 -943 949 1104"/>
    </vehicle>
    <vehicle id="160" depart="272.00">
        <route edges="-1568 -1089 -937 -533 -485 -338 330 819"/>
    </vehicle>
    <vehicle id="161" depart="273.00">
        <route edges="-1104 -949 -539 -485 -338 330 819"/>
    </vehicle>
    <vehicle id="162" depart="275.00">
        <route edges="-939 -533 531"/>
    </vehicle>
    <vehicle id="163" depart="275.00">
        <route edges="275 338 541 1690"/>
    </vehicle>
    <vehicle id="164" depart="275.00">
        <route edges="-1568 -1089 -937 -533 531"/>
    </vehicle>
    <vehicle id="165" depart="277.00">
        <route edges="275 338 541 1690"/>
    </vehicle>
    <vehicle id="166" depart="279.00">
        <route edges="-819 -330 338 485 539 949 1108 1677"/>
    </vehicle>
    <vehicle id="167" depart="283.00">
        <route edges="-531 -485 -338 330 819"/>
    </vehicle>
    <vehicle id="168" depart="284.00">
        <route edges="-1573 -1102 -943 -539 531"/>
    </vehicle>
    <vehicle id="169" depart="285.00">
        <route edges="-1085 -833 -330 338 485 539 949 1104"/>
    </vehicle>
    <vehicle id="170" depart="288.00">
        <route edges="1222 -1102 1092 -338 330 833 1085"/>
    </vehicle>
    <vehicle id="171" depart="289.00">
        <route edges="-819 -330 338 -1092 1102 -1222"/>
    </vehicle>
    <vehicle id="172" depart="291.00">
        <route edges="275 338 485 539 949 1104"/>
    </vehicle>
    <vehicle id="173" depart="292.00">
        <route edges="1222 -1102 1092 541 1690"/>
    </vehicle>
    <vehicle id="174" depart="293.00">
        <route edges="-1573 -1102 -943 -539 531"/>
    </vehicle>
    <vehicle id="175" depart="293.00">
        <route edges="1222 -1102 1092 541 1690"/>
    </vehicle>
    <vehicle id="176" depart="295.00">
        <route edges="-939 -533 -485 541 1690"/>
    </vehicle>
    <vehicle id="177" depart="296.00">
        <route edges="-1677 -1108 -949 943 1102 -1222"/>
    </vehicle>
    <vehicle id="178" depart="298.00">
        <route edges="-819 -330 -275"/>
    </vehicle>
    <vehicle id="179" depart="299.00">
        <route edges="-1568 -1089 -937 -533 -485 541 1690"/>
    </vehicle>
    <vehicle id="180" depart="300.00">
        <route edges="-1102 -943 949 1108 1677"/>
    </vehicle>
    <vehicle id="181" depart="301.00">
        <route edges="-531 539 949 1108 1677"/>
    </vehicle>
    <vehicle id="182" depart="302.00">
        <route edges="-1104 -949 -539 -485 -338 -275"/>
    </vehicle>
    <vehicle id="183" depart="304.00">
        <route edges="275 330 819"/>
    </vehicle>
    <vehicle id="184" depart="310.00">
        <route edges="-1104 -949 943 1092 541 1690"/>
    </vehicle>
    <vehicle id="185" depart="311.00">
        <route edges="1222 -1102 -943 -539 531"/>
    </vehicle>
    <vehicle id="186" depart="312.00">
        <route edges="-1568 -1089 -937 -533 539 949 1108 1677"/>
    </vehicle>
    <vehicle id="187" depart="315.00">
        <route edges="275 338 485 539 949 1108 1677"/>
    </vehicle>
    <vehicle id="188" depart="318.00">
        <route edges="-819 -330 338 485 533 937 1089 1568"/>
    </vehicle>
    <vehicle id="189" depart="319.00">
        <route edges="1222 -1102 1092 -338 330 833 1085"/>
    </vehicle>
    <vehicle id="190" depart="320.00">
        <route edges="-939 -533 -485 -338 330 819"/>
    </vehicle>
    <vehicle id="191" depart="321.00">
        <route edges="-819 -330 338 485 533 937 1089 1568"/>
    </vehicle>
    <vehicle id="192" depart="321.00">
        <route edges="-819 -330 338 -1092 1102 1573"/>
    </vehicle>
    <vehicle id="193" depart="325.00">
        <route edges="-531 539 943 1102 1573"/>
    </vehicle>
    <vehicle id="194" depart="329.00">
        <route edges="-1568 -1089 -937 -533 -485 -338 330 833 1085"/>
    </vehicle>
    <vehicle id="195" depart="331.00">
        <route edges="-1690 -541 -1092 1102 -1222"/>
    </vehicle>
    <vehicle id="196" depart="334.00">
        <route edges="-1677 -1108 -949 943 1102 -1222"/>
    </vehicle>
    <vehicle id="197" depart="335.00">
        <route edges="275 338 485 539 949 1104"/>
    </vehicle>
    <vehicle id="198" depart="339.00">
        <route edges="-1085 -833 -330 338 485 539 949 1108 1677"/>
    </vehicle>
    <vehicle id="199" depart="339.00">
        <route edges="-531 539 943 1102 -1222"/>
    </vehicle>
    <vehicle id="200" depart="340.00">
        <route edges="-1690 -541 485 533 939"/>
    </vehicle>
    <vehicle id="201" depart="342.00">
        <route edges="-939 -533 -485 -1092 1102 1573"/>
    </vehicle>
    <vehicle id="202" depart="343.00">
        <route edges="-939 -533 531"/>
    </vehicle>
    <vehicle id="203" depart="345.00">
        <route edges="-1104 -949 943 1092 541 1690"/>
    </vehicle>
    <vehicle id="204" depart="348.00">
        <route edges="275 338 485 533 937 1089 1568"/>
    </vehicle>
    <vehicle id="205" depart="349.00">
        <route edges="-1568 -1089 -937 -533 -485 -1092 1102 -1222"/>
    </vehicle>
    <vehicle id="206" depart="349.00">
        <route edges="-531 539 943 1102 1573"/>
    </vehicle>
    <vehicle id="207" depart="350.00">
        <route edges="-531 539 943 1102 1573"/>
    </vehicle>
    <vehicle id="208" depart="350.00">
        <route edges="-1104 -949 -539 533 939"/>
    </vehicle>
    <vehicle id="209" depart="354.00">
        <route edges="-1104 -949 943 1102 -1222"/>
    </vehicle>
    <vehicle id="210" depart="355.00">
        <route edges="1222 -1102 1092 -338 330 833 1085"/>
    </vehicle>
    <vehicle id="211" depart="358.00">
        <route edges="-1690 -541 -1092 -943 949 1108 1677"/>
    </vehicle>
    <vehicle id="212" depart="359.00">
        <route edges="-939 -533 -485 -1092 1102 1573"/>
    </vehicle>
    <vehicle id="213" depart="360.00">
        <route edges="-1568 -1089 -937 -533 539 949 1108 1677"/>
    </vehicle>
    <vehicle id="214" depart="364.00">
        <route edges="-819 -330 338 485 533 937 1089 1568"/>
    </vehicle>
    <vehicle id="215" depart="364.00">
        <route edges="-1104 -949 -539 -485 -338 330 819"/>
    </vehicle>
    <vehicle id="216" depart="368.00">
        <route edges="-939 -533 -485 541 1690"/>
    </vehicle>
    <vehicle id="217" depart="369.00">
        <route edges="1222 -1102 -943 949 1108 1677"/>
    </vehicle>
    <vehicle id="218" depart="369.00">
        <route edges="-1677 -1108 -949 -539 531"/>
    </vehicle>
    <vehicle id="219" depart="370.00">
        <route edges="-1573 -1102 1092 485 533 937 1089 1568"/>
    </vehicle>
    <vehicle id="220" depart="372.00">
        <route edges="1222 -1102 1092 -338 330 819"/>
    </vehicle>
    <vehicle id="221" depart="372.00">
        <route edges="275 338 485 533 939"/>
    </vehicle>
    <vehicle id="222" depart="372.00">
        <route edges="-1568 -1089 -937 -533 -485 -1092 1102 -1222"/>
    </vehicle>
    <vehicle id="223" depart="375.00">
        <route edges="-1085 -833 -330 338 -1092 1102 1573"/>
    </vehicle>
    <vehicle id="224" depart="377.00">
        <route edges="-939 -533 -485 -1092 1102 -1222"/>
    </vehicle>
    <vehicle id="225" depart="378.00">
        <route edges="-1690 -541 485 533 939"/>
    </vehicle>
    <vehicle id="226" depart="379.00">
        <route edges="-1568 -1089 -937 -533 -485 541 1690"/>
    </vehicle>
    <vehicle id="227" depart="380.00">
        <route edges="-1690 -541 -1092 -943 949 1108 1677"/>
    </vehicle>
    <vehicle id="228" depart="381.00">
        <route edges="-939 -533 -485 -338 -275"/>
    </vehicle>
    <vehicle id="229" depart="384.00">
        <route edges="-819 -330 338 485 533 937 1089 1568"/>
    </vehicle>
    <vehicle id="230" depart="384.00">
        <route edges="1222 -1102 -943 -539 531"/>
    </vehicle>
    <vehicle id="231" depart="387.00">
        <route edges="-531 533 939"/>
    </vehicle>
    <vehicle id="232" depart="388.00">
        <route edges="-1085 -833 -330 338 485 539 949 1104"/>
    </vehicle>
    <vehicle id="233" depart="393.00">
        <route edges="1222 -1102 1092 541 1690"/>
    </vehicle>
    <vehicle id="234" depart="394.00">
        <route edges="-1568 -1089 -937 -533 531"/>
    </vehicle>
    <vehicle id="235" depart="396.00">
        <route edges="-939 -533 539 949 1104"/>
    </vehicle>
    <vehicle id="236" depart="396.00">
        <route edges="-531 -485 -338 -275"/>
    </vehicle>
    <vehicle id="237" depart="397.00">
        <route edges="-1573 -1102 1092 485 533 937 1089 1568"/>
    </vehicle>
    <vehicle id="238" depart="397.00">
        <route edges="-1677 -1108 -949 943 1102 -1222"/>
    </vehicle>
    <vehicle id="239" depart="399.00">
        <route edges="-1573 -1102 1092 485 533 939"/>
    </vehicle>
    <vehicle id="240" depart="400.00">
        <route edges="1222 -1102 1092 -338 330 833 1085"/>
    </vehicle>
    <vehicle id="241" depart="400.00">
        <route edges="275 338 485 533 939"/>
    </vehicle>
    <vehicle id="242" depart="401.00">
        <route edges="-819 -330 -275"/>
    </vehicle>
    <vehicle id="243" depart="401.00">
        <route edges="-1568 -1089 -937 -533 -485 -1092 1102 1573"/>
    </vehicle>
    <vehicle id="244" depart="402.00">
        <route edges="-1085 -833 -330 -275"/>
    </vehicle>
    <vehicle id="245" depart="402.00">
        <route edges="-819 -330 338 -1092 1102 -1222"/>
    </vehicle>
    <vehicle id="246" depart="403.00">
        <route edges="1222 -1102 1092 541 1690"/>
    </vehicle>
    <vehicle id="247" depart="404.00">
        <route edges="-1568 -1089 -937 -533 -485 -1092 1102 1573"/>
    </vehicle>
    <vehicle id="248" depart="405.00">
        <route edges="-531 539 943 1102"/>
    </vehicle>
    <vehicle id="249" depart="412.00">
        <route edges="-939 -533 -485 -1092 1102 -1222"/>
    </vehicle>
    <vehicle id="250" depart="413.00">
        <route edges="-1573 -1102 -943 949 1108 1677"/>
    </vehicle>
    <vehicle id="251" depart="414.00">
        <route edges="-1677 -1108 -949 -539 531"/>
    </vehicle>
    <vehicle id="252" depart="415.00">
        <route edges="-1573 -1102 1092 485 533 937 1089 1568"/>
    </vehicle>
    <vehicle id="253" depart="415.00">
        <route edges="-1690 -541 -338 -275"/>
    </vehicle>
    <vehicle id="254" depart="421.00">
        <route edges="1222 -1102 1092 -338 330 833 1085"/>
    </vehicle>
    <vehicle id="255" depart="422.00">
        <route edges="-1104 -949 943 1092 541 1690"/>
    </vehicle>
    <vehicle id="256" depart="422.00">
        <route edges="1222 -1102 1092 541 1690"/>
    </vehicle>
    <vehicle id="257" depart="422.00">
        <route edges="-1677 -1108 -949 -539 -485 -338 -275"/>
    </vehicle>
    <vehicle id="258" depart="427.00">
        <route edges="-1085 -833 -330 338 485 539 949 1108 1677"/>
    </vehicle>
    <vehicle id="259" depart="428.00">
        <route edges="-1568 -1089 -937 -533 539 949 1104"/>
    </vehicle>
    <vehicle id="260" depart="428.00">
        <route edges="-819 -330 338 485 539 949 1104"/>
    </vehicle>
    <vehicle id="261" depart="429.00">
        <route edges="-1573 -1102 1092 541 1690"/>
    </vehicle>
    <vehicle id="262" depart="431.00">
        <route edges="275 338 485 539 949 1108 1677"/>
    </vehicle>
    <vehicle id="263" depart="432.00">
        <route edges="-1677 -1108 -949 943 1102 1573"/>
    </vehicle>
    <vehicle id="264" depart="433.00">
        <route edges="-1690 -541 -1092 1102 1573"/>
    </vehicle>
    <vehicle id="265" depart="435.00">
        <route edges="275 338 541 1690"/>
    </vehicle>
    <vehicle id="266" depart="435.00">
        <route edges="-1573 -1102 -943 949 1108 1677"/>
    </vehicle>
    <vehicle id="267" depart="436.00">
        <route edges="-531 539 943 1102 1573"/>
    </vehicle>
    <vehicle id="268" depart="438.00">
        <route edges="-1677 -1108 -949 -539 -485 -338 -275"/>
    </vehicle>