<?xml version="1.0" encoding="UTF-8"?>

<!-- generated on 2025-03-09 19:49:01.218200 by randomTrips.py v1_19_0+1770-8bb5c24c187
<configuration>
    <net-file value="random_subnetwork_5.net.xml"/>
    <output-trip-file value="random_subnetwork_5_heavy.trips.xml"/>
    <fringe-factor value="100"/>
    <remove-loops value="True"/>
    <validate value="True"/>
    <period value="1.6635"/>
    <binomial value="4"/>
</configuration>
-->

<!-- generated on 2025-03-09 19:49:01 by Eclipse SUMO duarouter Version v1_19_0+1770-8bb5c24c187
<configuration xmlns:xsi="http://www.w3.org/2001/XMLSchema-instance" xsi:noNamespaceSchemaLocation="http://sumo.dlr.de/xsd/duarouterConfiguration.xsd">

    <input>
        <net-file value="random_subnetwork_5.net.xml"/>
        <route-files value="random_subnetwork_5_heavy.trips.xml"/>
    </input>

    <output>
        <output-file value="routes.rou.xml"/>
        <alternatives-output value="NUL"/>
    </output>

    <processing>
        <remove-loops value="true"/>
    </processing>

    <time>
        <begin value="0.0"/>
        <end value="3600.0"/>
    </time>

    <report>
        <no-warnings value="true"/>
        <ignore-errors value="true"/>
        <no-step-log value="true"/>
    </report>

</configuration>
-->

<routes xmlns:xsi="http://www.w3.org/2001/XMLSchema-instance" xsi:noNamespaceSchemaLocation="http://sumo.dlr.de/xsd/routes_file.xsd">
    <vehicle id="0" depart="0.00">
        <route edges="-1104 -949 943 1102"/>
    </vehicle>
    <vehicle id="1" depart="1.00">
        <route edges="-1677 -1108 -949 -539 -485 -338 -275"/>
    </vehicle>
    <vehicle id="2" depart="2.00">
        <route edges="-1104 -949 943 1092 541 1690"/>
    </vehicle>
    <vehicle id="3" depart="3.00">
        <route edges="-939 -533 -485 -338 330"/>
    </vehicle>
    <vehicle id="4" depart="4.00">
        <route edges="-1085 -833 819"/>
    </vehicle>
    <vehicle id="5" depart="7.00">
        <route edges="-1104 -949 943 1102"/>
    </vehicle>
    <vehicle id="6" depart="8.00">
        <route edges="-1104 -949 -539 -485 -338 330"/>
    </vehicle>
    <vehicle id="7" depart="13.00">
        <route edges="-1568 -1089 -937 -533 -485 -1092 1102"/>
    </vehicle>
    <vehicle id="8" depart="18.00">
        <route edges="-1085 -833 -330 338 485 539 949"/>
    </vehicle>
    <vehicle id="9" depart="19.00">
        <route edges="-1568 -1089 -937 939"/>
    </vehicle>
    <vehicle id="10" depart="20.00">
        <route edges="-819 -330 338 541 1690"/>
    </vehicle>
    <vehicle id="11" depart="21.00">
        <route edges="-1677 -1108 -949 -539 533 937 1089 1568"/>
    </vehicle>
    <vehicle id="12" depart="25.00">
        <route edges="-1568 -1089 -937 -533 -485 -338 -275"/>
    </vehicle>
    <vehicle id="13" depart="26.00">
        <route edges="-939 939"/>
    </vehicle>
    <vehicle id="14" depart="26.00">
        <route edges="-1677 -1108 -949 -539 -485 -338 -275"/>
    </vehicle>
    <vehicle id="15" depart="27.00">
        <route edges="-1677 -1108 1108 1677"/>
    </vehicle>
    <vehicle id="16" depart="30.00">
        <route edges="-1104 1104"/>
    </vehicle>
    <vehicle id="17" depart="31.00">
        <route edges="-531 539 943 1102"/>
    </vehicle>
    <vehicle id="18" depart="32.00">
        <route edges="-1104 -949 943 1092 541 1690"/>
    </vehicle>
    <vehicle id="19" depart="32.00">
        <route edges="275 338 485 539 949 1108 1677"/>
    </vehicle>
    <vehicle id="20" depart="34.00">
        <route edges="-1677 -1108 -949 -539 533 937 1089 1568"/>
    </vehicle>
    <vehicle id="21" depart="35.00">
        <route edges="-1677 -1108 1104"/>
    </vehicle>
    <vehicle id="22" depart="38.00">
        <route edges="-949 -539 -485 -338 330 819"/>
    </vehicle>
    <vehicle id="23" depart="40.00">
        <route edges="-1568 -1089 -937 939"/>
    </vehicle>
    <vehicle id="24" depart="44.00">
        <route edges="-1690 -541 485 533 937 1089 1568"/>
    </vehicle>
    <vehicle id="25" depart="45.00">
        <route edges="-1102 -943 949 1108 1677"/>
    </vehicle>
    <vehicle id="26" depart="45.00">
        <route edges="-1089 -937 -533 -485 -1092 1102"/>
    </vehicle>
    <vehicle id="27" depart="49.00">
        <route edges="-1677 -1108 -949 943"/>
    </vehicle>
    <vehicle id="28" depart="50.00">
        <route edges="-1104 -949 943 1102"/>
    </vehicle>
    <vehicle id="29" depart="52.00">
        <route edges="-939 -533 -485 -1092 1102"/>
    </vehicle>
    <vehicle id="30" depart="53.00">
        <route edges="-1102 1092 -338 330 833"/>
    </vehicle>
    <vehicle id="31" depart="56.00">
        <route edges="-1677 -1108 -949 943 1102"/>
    </vehicle>
    <vehicle id="32" depart="56.00">
        <route edges="-819 -330 338 541 1690"/>
    </vehicle>
    <vehicle id="33" depart="57.00">
        <route edges="-1085 -833 819"/>
    </vehicle>
    <vehicle id="34" depart="59.00">
        <route edges="-1102 -943 949 1104"/>
    </vehicle>
    <vehicle id="35" depart="60.00">
        <route edges="-819 819"/>
    </vehicle>
    <vehicle id="36" depart="63.00">
        <route edges="-819 -330 338 485 539 949 1104"/>
    </vehicle>
    <vehicle id="37" depart="64.00">
        <route edges="-939 -533 -485 -338 330 819"/>
    </vehicle>
    <vehicle id="38" depart="66.00">
        <route edges="-1102 -943 949 1104"/>
    </vehicle>
    <vehicle id="39" depart="68.00">
        <route edges="275 330 833 1085"/>
    </vehicle>
    <vehicle id="40" depart="69.00">
        <route edges="-1677 -1108 -949 -539 531"/>
    </vehicle>
    <vehicle id="41" depart="71.00">
        <route edges="275 338 485 539 949 1108 1677"/>
    </vehicle>
    <vehicle id="42" depart="72.00">
        <route edges="-531 539 949 1104"/>
    </vehicle>
    <vehicle id="43" depart="75.00">
        <route edges="-1677 -1108 -949 -539 533 939"/>
    </vehicle>
    <vehicle id="44" depart="76.00">
        <route edges="-1104 -949 -539 533 937 1089 1568"/>
    </vehicle>
    <vehicle id="45" depart="79.00">
        <route edges="-1690 -541 541 1690"/>
    </vehicle>
    <vehicle id="46" depart="80.00">
        <route edges="-1104 -949 -539 533 937 1089 1568"/>
    </vehicle>
    <vehicle id="47" depart="81.00">
        <route edges="-1677 -1108 -949 943 1092 541 1690"/>
    </vehicle>
    <vehicle id="48" depart="82.00">
        <route edges="-819 -330 338 485 531"/>
    </vehicle>
    <vehicle id="49" depart="83.00">
        <route edges="-1677 -1108 -949 -539 -485 -338 330 833 1085"/>
    </vehicle>
    <vehicle id="50" depart="83.00">
        <route edges="-1104 -949 -539 -485 -338 330 819"/>
    </vehicle>
    <vehicle id="51" depart="89.00">
        <route edges="-1104 -949 943 1102"/>
    </vehicle>
    <vehicle id="52" depart="90.00">
        <route edges="-1104 -949 943 1092 541 1690"/>
    </vehicle>
    <vehicle id="53" depart="90.00">
        <route edges="-1677 -1108 1108 1677"/>
    </vehicle>
    <vehicle id="54" depart="93.00">
        <route edges="-1568 -1089 -937 -533 531"/>
    </vehicle>
    <vehicle id="55" depart="95.00">
        <route edges="-1568 -1089 -937 -533 -485 541 1690"/>
    </vehicle>
    <vehicle id="56" depart="96.00">
        <route edges="-531 -485 -338 -275"/>
    </vehicle>
    <vehicle id="57" depart="97.00">
        <route edges="-531 -485 -338 330 833 1085"/>
    </vehicle>
    <vehicle id="58" depart="98.00">
        <route edges="-1568 -1089 -937 -533 -485 -1092 1102"/>
    </vehicle>
    <vehicle id="59" depart="99.00">
        <route edges="-1085 -833 -330 338 485 539 949 1108 1677"/>
    </vehicle>
    <vehicle id="60" depart="102.00">
        <route edges="-1102 1092 -338 330 833 1085"/>
    </vehicle>
    <vehicle id="61" depart="104.00">
        <route edges="-939 939"/>
    </vehicle>
    <vehicle id="62" depart="104.00">
        <route edges="-1085 -833 -330 338 485 539 949 1104"/>
    </vehicle>
    <vehicle id="63" depart="105.00">
        <route edges="541 1690"/>
    </vehicle>
    <vehicle id="64" depart="106.00">
        <route edges="-819 819"/>
    </vehicle>
    <vehicle id="65" depart="106.00">
        <route edges="275 338 485 531"/>
    </vehicle>
    <vehicle id="66" depart="108.00">
        <route edges="275 338 541 1690"/>
    </vehicle>
    <vehicle id="67" depart="112.00">
        <route edges="-939 -533 -485 -1092 1102"/>
    </vehicle>
    <vehicle id="68" depart="113.00">
        <route edges="-939 -533 -485 -338 330 833 1085"/>
    </vehicle>
    <vehicle id="69" depart="115.00">
        <route edges="275 -275"/>
    </vehicle>
    <vehicle id="70" depart="117.00">
        <route edges="-1104 -949 943 1092 541 1690"/>
    </vehicle>
    <vehicle id="71" depart="119.00">
        <route edges="-1102 1092 -338 330 833 1085"/>
    </vehicle>
    <vehicle id="72" depart="122.00">
        <route edges="-1102 1102"/>
    </vehicle>
    <vehicle id="73" depart="122.00">
        <route edges="-1690 -541 -1092 1102"/>
    </vehicle>
    <vehicle id="74" depart="123.00">
        <route edges="-939 937 1089 1568"/>
    </vehicle>
    <vehicle id="75" depart="125.00">
        <route edges="275 338 485 533 937 1089 1568"/>
    </vehicle>
    <vehicle id="76" depart="126.00">
        <route edges="-531 -485 -338 -275"/>
    </vehicle>
    <vehicle id="77" depart="126.00">
        <route edges="-1690 -541 -1092 1102"/>
    </vehicle>
    <vehicle id="78" depart="126.00">
        <route edges="-819 -330 338 541 1690"/>
    </vehicle>
    <vehicle id="79" depart="131.00">
        <route edges="-1085 -833 -330 338 485 533 937 1089 1568"/>
    </vehicle>
    <vehicle id="80" depart="135.00">
        <route edges="-1102 -943 949 1104"/>
    </vehicle>
    <vehicle id="81" depart="136.00">
        <route edges="-533 -485 -338"/>
    </vehicle>
    <vehicle id="82" depart="137.00">
        <route edges="-1085 -833 -330 338 485 533 937 1089 1568"/>
    </vehicle>
    <vehicle id="83" depart="138.00">
        <route edges="275 330 819"/>
    </vehicle>
    <vehicle id="84" depart="140.00">
        <route edges="-819 -330 338 485 533 937 1089 1568"/>
    </vehicle>
    <vehicle id="85" depart="141.00">
        <route edges="-1568 -1089 -937 -533 539 949 1104"/>
    </vehicle>
    <vehicle id="86" depart="149.00">
        <route edges="275 338 541 1690"/>
    </vehicle>
    <vehicle id="87" depart="150.00">
        <route edges="485 533 939"/>
    </vehicle>
    <vehicle id="88" depart="150.00">
        <route edges="-939 937 1089 1568"/>
    </vehicle>
    <vehicle id="89" depart="156.00">
        <route edges="-1690 -541 -1092 -943 949 1104"/>
    </vehicle>
    <vehicle id="90" depart="159.00">
        <route edges="-819 -330 338 485 531"/>
    </vehicle>
    <vehicle id="91" depart="161.00">
        <route edges="-1690 -541 -1092 -943 949 1108 1677"/>
    </vehicle>
    <vehicle id="92" depart="166.00">
        <route edges="-1085 -833 -330 338 541 1690"/>
    </vehicle>
    <vehicle id="93" depart="168.00">
        <route edges="-531 -485 -338 330 819"/>
    </vehicle>
    <vehicle id="94" depart="169.00">
        <route edges="-939 -533 -485 -1092 1102"/>
    </vehicle>
    <vehicle id="95" depart="169.00">
        <route edges="-1690 -541 -1092 -943 949 1108 1677"/>
    </vehicle>
    <vehicle id="96" depart="170.00">
        <route edges="-939 -533 -485 541 1690"/>
    </vehicle>
    <vehicle id="97" depart="171.00">
        <route edges="-1677 -1108 -949 943 1102"/>
    </vehicle>
    <vehicle id="98" depart="171.00">
        <route edges="-939 939"/>
    </vehicle>
    <vehicle id="99" depart="177.00">
        <route edges="-531 533 937 1089 1568"/>
    </vehicle>
    <vehicle id="100" depart="182.00">
        <route edges="-1108 -949 -539 531"/>
    </vehicle>
    <vehicle id="101" depart="182.00">
        <route edges="-1690 -541 485 533 939"/>
    </vehicle>
    <vehicle id="102" depart="185.00">
        <route edges="275 330 833 1085"/>
    </vehicle>
    <vehicle id="103" depart="187.00">
        <route edges="-1690 -541 485 533 937 1089 1568"/>
    </vehicle>
    <vehicle id="104" depart="189.00">
        <route edges="-1104 -949 -539 -485 -338 -275"/>
    </vehicle>
    <vehicle id="105" depart="190.00">
        <route edges="-939 939"/>
    </vehicle>
    <vehicle id="106" depart="191.00">
        <route edges="275 338 -1092 1102"/>
    </vehicle>
    <vehicle id="107" depart="191.00">
        <route edges="-939 -533 -485 -338 330 833 1085"/>
    </vehicle>
    <vehicle id="108" depart="193.00">
        <route edges="-1677 -1108 -949 -539 533 937 1089 1568"/>
    </vehicle>
    <vehicle id="109" depart="194.00">
        <route edges="-1568 -1089 -937 937 1089 1568"/>
    </vehicle>
    <vehicle id="110" depart="195.00">
        <route edges="-531 539 949 1108 1677"/>
    </vehicle>
    <vehicle id="111" depart="196.00">
        <route edges="-939 937 1089 1568"/>
    </vehicle>
    <vehicle id="112" depart="197.00">
        <route edges="-819 -330 338 -1092 1102"/>
    </vehicle>
    <vehicle id="113" depart="197.00">
        <route edges="-1690 -541 -338 -275"/>
    </vehicle>
    <vehicle id="114" depart="199.00">
        <route edges="275 338 485 539 949 1108"/>
    </vehicle>
    <vehicle id="115" depart="199.00">
        <route edges="-1102 1102"/>
    </vehicle>
    <vehicle id="116" depart="200.00">
        <route edges="-1085 -833 -330 338 485 531"/>
    </vehicle>
    <vehicle id="117" depart="201.00">
        <route edges="-819 -330 338 485 539 949 1108 1677"/>
    </vehicle>
    <vehicle id="118" depart="202.00">
        <route edges="-1690 -541 485 533 939"/>
    </vehicle>
    <vehicle id="119" depart="202.00">
        <route edges="-819 819"/>
    </vehicle>
    <vehicle id="120" depart="203.00">
        <route edges="-1677 -1108 1104"/>
    </vehicle>
    <vehicle id="121" depart="204.00">
        <route edges="-1085 -833 -330 338 541 1690"/>
    </vehicle>
    <vehicle id="122" depart="205.00">
        <route edges="-1104 -949 943 1092 541 1690"/>
    </vehicle>
    <vehicle id="123" depart="206.00">
        <route edges="-819 819"/>
    </vehicle>
    <vehicle id="124" depart="209.00">
        <route edges="-1677 -1108 -949 943 1092 541 1690"/>
    </vehicle>
    <vehicle id="125" depart="210.00">
        <route edges="-939 -533 -485 -338 -275"/>
    </vehicle>
    <vehicle id="126" depart="210.00">
        <route edges="-819 819"/>
    </vehicle>
    <vehicle id="127" depart="211.00">
        <route edges="-1568 -1089 -937 -533 -485 541 1690"/>
    </vehicle>
    <vehicle id="128" depart="214.00">
        <route edges="-939 -533 539 949 1104"/>
    </vehicle>
    <vehicle id="129" depart="216.00">
        <route edges="275 330 819"/>
    </vehicle>
    <vehicle id="130" depart="218.00">
        <route edges="-939 -533 539 949 1108 1677"/>
    </vehicle>
    <vehicle id="131" depart="218.00">
        <route edges="-531 -485 -338 -275"/>
    </vehicle>
    <vehicle id="132" depart="221.00">
        <route edges="-1085 -833 833 1085"/>
    </vehicle>
    <vehicle id="133" depart="223.00">
        <route edges="-1677 -1108 -949 943 1102"/>
    </vehicle>
    <vehicle id="134" depart="224.00">
        <route edges="-1677 -1108 1108 1677"/>
    </vehicle>
    <vehicle id="135" depart="224.00">
        <route edges="-1568 -1089 -937 -533 -485 -1092 1102"/>
    </vehicle>
    <vehicle id="136" depart="224.00">
        <route edges="-1104 1104"/>
    </vehicle>
    <vehicle id="137" depart="225.00">
        <route edges="-819 833 1085"/>
    </vehicle>
    <vehicle id="138" depart="226.00">
        <route edges="-939 -533 -485 -338 -275"/>
    </vehicle>
    <vehicle id="139" depart="226.00">
        <route edges="275 330 819"/>
    </vehicle>
    <vehicle id="140" depart="228.00">
        <route edges="-1085 -833 -330 338 485 539 949 1104"/>
    </vehicle>
    <vehicle id="141" depart="229.00">
        <route edges="-939 -533 -485 -1092 1102"/>
    </vehicle>
    <vehicle id="142" depart="231.00">
        <route edges="-1690 -541 485 533 939"/>
    </vehicle>
    <vehicle id="143" depart="233.00">
        <route edges="-1104 -949 943 1092 541 1690"/>
    </vehicle>
    <vehicle id="144" depart="237.00">
        <route edges="-1677 -1108 -949 943 1102"/>
    </vehicle>
    <vehicle id="145" depart="237.00">
        <route edges="-1690 -541 -1092 -943 949 1104"/>
    </vehicle>
    <vehicle id="146" depart="238.00">
        <route edges="-939 -533 -485 -338 -275"/>
    </vehicle>
    <vehicle id="147" depart="241.00">
        <route edges="-1102 1092 -338 330 833"/>
    </vehicle>
    <vehicle id="148" depart="246.00">
        <route edges="-1085 -833 -330 338 541 1690"/>
    </vehicle>
    <vehicle id="149" depart="248.00">
        <route edges="-1568 -1089 -937 939"/>
    </vehicle>
    <vehicle id="150" depart="253.00">
        <route edges="-1085 -833 819"/>
    </vehicle>
    <vehicle id="151" depart="254.00">
        <route edges="-819 819"/>
    </vehicle>
    <vehicle id="152" depart="254.00">
        <route edges="-1568 -1089 -937 -533 531"/>
    </vehicle>
    <vehicle id="153" depart="254.00">
        <route edges="-1568 -1089 -937 -533 -485 -338 330 833 1085"/>
    </vehicle>
    <vehicle id="154" depart="261.00">
        <route edges="-1104 -949 943 1092 541 1690"/>
    </vehicle>
    <vehicle id="155" depart="262.00">
        <route edges="-939 -533 -485 -338 330 819"/>
    </vehicle>
    <vehicle id="156" depart="263.00">
        <route edges="-1677 -1108 -949 -539 533 939"/>
    </vehicle>
    <vehicle id="157" depart="264.00">
        <route edges="-1085 -833 -330 338 485 533 937 1089 1568"/>
    </vehicle>
    <vehicle id="158" depart="265.00">
        <route edges="275 330 819"/>
    </vehicle>
    <vehicle id="159" depart="266.00">
        <route edges="-1104 -949 -539 -485 -338 330 819"/>
    </vehicle>
    <vehicle id="160" depart="267.00">
        <route edges="-819 -330 338 485 533 937 1089 1568"/>
    </vehicle>
    <vehicle id="161" depart="267.00">
        <route edges="-1085 -833 -330 338 -1092 1102"/>
    </vehicle>
    <vehicle id="162" depart="268.00">
        <route edges="-1104 -949 943 1102"/>
    </vehicle>
    <vehicle id="163" depart="268.00">
        <route edges="-1677 -1108 -949 -539 531"/>
    </vehicle>
    <vehicle id="164" depart="269.00">
        <route edges="275 338 485 539 949 1108 1677"/>
    </vehicle>
    <vehicle id="165" depart="269.00">
        <route edges="-1690 -541 -1092 1102"/>
    </vehicle>
    <vehicle id="166" depart="269.00">
        <route edges="-1677 -1108 -949 943 1092 541 1690"/>
    </vehicle>
    <vehicle id="167" depart="270.00">
        <route edges="275 -275"/>
    </vehicle>
    <vehicle id="168" depart="273.00">
        <route edges="-833 -330 338 485 539 949 1104"/>
    </vehicle>
    <vehicle id="169" depart="274.00">
        <route edges="-1690 -541 -338 330 819"/>
    </vehicle>
    <vehicle id="170" depart="276.00">
        <route edges="-819 -330 338 485 533 937 1089 1568"/>
    </vehicle>
    <vehicle id="171" depart="277.00">
        <route edges="-1104 -949 -539 -485 -338 -275"/>
    </vehicle>
    <vehicle id="172" depart="280.00">
        <route edges="-1568 -1089 -937 -533 -485 -338 330 819"/>
    </vehicle>
    <vehicle id="173" depart="282.00">
        <route edges="-531 -485 -338 330 819"/>
    </vehicle>
    <vehicle id="174" depart="283.00">
        <route edges="-531 539 943 1102"/>
    </vehicle>
    <vehicle id="175" depart="284.00">
        <route edges="-939 -533 539 949 1104"/>
    </vehicle>
    <vehicle id="176" depart="286.00">
        <route edges="-531 539 949 1104"/>
    </vehicle>
    <vehicle id="177" depart="287.00">
        <route edges="-531 531"/>
    </vehicle>
    <vehicle id="178" depart="287.00">
        <route edges="-1085 -833 -330 338 485 531"/>
    </vehicle>
    <vehicle id="179" depart="290.00">
        <route edges="-819 -330 338 485 533 937 1089 1568"/>
    </vehicle>
    <vehicle id="180" depart="293.00">
        <route edges="-939 937 1089 1568"/>
    </vehicle>
    <vehicle id="181" depart="294.00">
        <route edges="-531 -485 -338 330 819"/>
    </vehicle>
    <vehicle id="182" depart="294.00">
        <route edges="-1690 -541 -338 330 819"/>
    </vehicle>
    <vehicle id="183" depart="296.00">
        <route edges="-1104 -949 -539 -485 -338 330 833 1085"/>
    </vehicle>
    <vehicle id="184" depart="297.00">
        <route edges="-1690 -541 -1092 -943 949 1104"/>
    </vehicle>
    <vehicle id="185" depart="298.00">
        <route edges="-1568 -1089 -937 -533 539 949"/>
    </vehicle>
    <vehicle id="186" depart="299.00">
        <route edges="275 338 541 1690"/>
    </vehicle>
    <vehicle id="187" depart="302.00">
        <route edges="-1102 1092 -338 330 833 1085"/>
    </vehicle>
    <vehicle id="188" depart="304.00">
        <route edges="-1568 -1089 -937 -533 539 949 1108 1677"/>
    </vehicle>
    <vehicle id="189" depart="307.00">
        <route edges="-1085 -833 -330 338 541 1690"/>
    </vehicle>
    <vehicle id="190" depart="311.00">
        <route edges="-1085 -833 -330 338 485 533 937 1089 1568"/>
    </vehicle>
    <vehicle id="191" depart="313.00">
        <route edges="-1568 -1089 -937 -533 539 949 1108 1677"/>
    </vehicle>
    <vehicle id="192" depart="314.00">
        <route edges="-1104 1104"/>
    </vehicle>
    <vehicle id="193" depart="317.00">
        <route edges="275 338 485 539 949 1108 1677"/>
    </vehicle>
    <vehicle id="194" depart="318.00">
        <route edges="-1690 -541 -338 330 819"/>
    </vehicle>
    <vehicle id="195" depart="322.00">
        <route edges="-1690 -541 485 531"/>
    </vehicle>
    <vehicle id="196" depart="323.00">
        <route edges="275 338 485 539 949 1104"/>
    </vehicle>
    <vehicle id="197" depart="325.00">
        <route edges="-1102 -943 949 1104"/>
    </vehicle>
    <vehicle id="198" depart="331.00">
        <route edges="-1677 -1108 -949 -539 533 939"/>
    </vehicle>
    <vehicle id="199" depart="333.00">
        <route edges="-531 -485 -338 -275"/>
    </vehicle>
    <vehicle id="200" depart="334.00">
        <route edges="-1085 -833 -330 338 485 539 949 1104"/>
    </vehicle>
    <vehicle id="201" depart="336.00">
        <route edges="-1102 1092 -338 330 833 1085"/>
    </vehicle>
    <vehicle id="202" depart="343.00">
        <route edges="-531 539 949 1104"/>
    </vehicle>
    <vehicle id="203" depart="347.00">
        <route edges="-531 539 949 1108 1677"/>
    </vehicle>
    <vehicle id="204" depart="348.00">
        <route edges="-1677 -1108 -949 -539 531"/>
    </vehicle>
    <vehicle id="205" depart="348.00">
        <route edges="-819 -330 -275"/>
    </vehicle>
    <vehicle id="206" depart="351.00">
        <route edges="-1690 -541 -1092 -943 949 1108 1677"/>
    </vehicle>
    <vehicle id="207" depart="355.00">
        <route edges="-1690 -541 485 533 937"/>
    </vehicle>
    <vehicle id="208" depart="358.00">
        <route edges="-1102 1092 485 533 937 1089 1568"/>
    </vehicle>
    <vehicle id="209" depart="361.00">
        <route edges="-531 -485 -338 330 833 1085"/>
    </vehicle>
    <vehicle id="210" depart="361.00">
        <route edges="-1568 -1089 -937 -533 -485 -1092 1102"/>
    </vehicle>
    <vehicle id="211" depart="363.00">
        <route edges="-531 -485 541 1690"/>
    </vehicle>
    <vehicle id="212" depart="363.00">
        <route edges="-1102 1102"/>
    </vehicle>
    <vehicle id="213" depart="364.00">
        <route edges="275 338 -1092 1102"/>
    </vehicle>
    <vehicle id="214" depart="365.00">
        <route edges="-1102 -943 -539 531"/>
    </vehicle>
    <vehicle id="215" depart="368.00">
        <route edges="-1677 -1108 -949 -539 531"/>
    </vehicle>
    <vehicle id="216" depart="368.00">
        <route edges="-1690 -541 -338 -275"/>
    </vehicle>
    <vehicle id="217" depart="369.00">
        <route edges="-1568 -1089 -937 -533 539 949 1108 1677"/>
    </vehicle>
    <vehicle id="218" depart="369.00">
        <route edges="-1104 1108 1677"/>
    </vehicle>
    <vehicle id="219" depart="370.00">
        <route edges="-1690 -541 -338 330 819"/>
    </vehicle>
    <vehicle id="220" depart="371.00">
        <route edges="-1677 -1108 -949 -539 -485 -338 330 819"/>
    </vehicle>
    <vehicle id="221" depart="372.00">
        <route edges="-1568 -1089 -937 -533 -485 -338 -275"/>
    </vehicle>
    <vehicle id="222" depart="373.00">
        <route edges="275 -275"/>
    </vehicle>
    <vehicle id="223" depart="378.00">
        <route edges="-1085 -833 -330 338 -1092 1102"/>
    </vehicle>
    <vehicle id="224" depart="381.00">
        <route edges="-939 937 1089 1568"/>
    </vehicle>
    <vehicle id="225" depart="382.00">
        <route edges="-1104 -949 -539 -485 -338 330"/>
    </vehicle>
    <vehicle id="226" depart="382.00">
        <route edges="-531 531"/>
    </vehicle>
    <vehicle id="227" depart="382.00">
        <route edges="-819 -330 338 485 539 949 1104"/>
    </vehicle>
    <vehicle id="228" depart="383.00">
        <route edges="-1690 -541 -1092 1102"/>
    </vehicle>
    <vehicle id="229" depart="385.00">
        <route edges="-531 539 943 1102"/>
    </vehicle>
    <vehicle id="230" depart="386.00">
        <route edges="275 330 819"/>
    </vehicle>
    <vehicle id="231" depart="388.00">
        <route edges="-1568 -1089 -937 -533 531"/>
    </vehicle>
    <vehicle id="232" depart="391.00">
        <route edges="-1104 -949 -539 -485 -338 330 833 1085"/>
    </vehicle>
    <vehicle id="233" depart="392.00">
        <route edges="-819 833 1085"/>
    </vehicle>
    <vehicle id="234" depart="395.00">
        <route edges="275 338 485 533 939"/>
    </vehicle>
    <vehicle id="235" depart="395.00">
        <route edges="-949 -539 533 937 1089 1568"/>
    </vehicle>
    <vehicle id="236" depart="399.00">
        <route edges="275 338 485 533 937 1089 1568"/>
    </vehicle>
    <vehicle id="237" depart="400.00">
        <route edges="-1104 -949 -539 533 939"/>
    </vehicle>
    <vehicle id="238" depart="406.00">
        <route edges="-1085 -833 819"/>
    </vehicle>
    <vehicle id="239" depart="408.00">
        <route edges="-1690 -541 -1092 -943 949 1104"/>
    </vehicle>
    <vehicle id="240" depart="410.00">
        <route edges="-1690 -541 -338 -275"/>
    </vehicle>
    <vehicle id="241" depart="411.00">
        <route edges="-939 -533 -485 541 1690"/>
    </vehicle>
    <vehicle id="242" depart="411.00">
        <route edges="-1085 -833 833 1085"/>
    </vehicle>
    <vehicle id="243" depart="415.00">
        <route edges="-1568 -1089 -937 -533 539 949 1108 1677"/>
    </vehicle>
    <vehicle id="244" depart="416.00">
        <route edges="-1085 -833 833 1085"/>
    </vehicle>
    <vehicle id="245" depart="417.00">
        <route edges="-1690 -541 -338 -275"/>
    </vehicle>
    <vehicle id="246" depart="418.00">
        <route edges="-1085 -833 -330 338 485 533 939"/>
    </vehicle>
    <vehicle id="247" depart="419.00">
        <route edges="275 338 485 539 949 1104"/>
    </vehicle>
    <vehicle id="248" depart="421.00">
        <route edges="-1102 1102"/>
    </vehicle>
    <vehicle id="249" depart="422.00">
        <route edges="275 338 485 531"/>
    </vehicle>
    <vehicle id="250" depart="423.00">
        <route edges="-1677 -1108 -949 -539 -485 -338 330 819"/>
    </vehicle>
    <vehicle id="251" depart="424.00">
        <route edges="-1104 -949 -539 533 939"/>
    </vehicle>
    <vehicle id="252" depart="426.00">
        <route edges="-531 531"/>
    </vehicle>
    <vehicle id="253" depart="427.00">
        <route edges="-1102 -943 -539 531"/>
    </vehicle>
    <vehicle id="254" depart="428.00">
        <route edges="-1085 -833 -330 338 485 539 949 1104"/>
    </vehicle>
    <vehicle id="255" depart="428.00">
        <route edges="-1102 1092 485 533 937 1089 1568"/>
    </vehicle>
    <vehicle id="256" depart="429.00">
        <route edges="-1568 -1089 -937 -533 -485 -338 -275"/>
    </vehicle>
    <vehicle id="257" depart="431.00">
        <route edges="275 338 485 533 939"/>
    </vehicle>
    <vehicle id="258" depart="432.00">
        <route edges="-1568 -1089 -937 937 1089 1568"/>
    </vehicle>
    <vehicle id="259" depart="432.00">
        <route edges="-1677 -1108 -949 -539 533 937 1089 1568"/>
    </vehicle>
    <vehicle id="260" depart="433.00">
        <route edges="-1104 -949 943 1102"/>
    </vehicle>
    <vehicle id="261" depart="434.00">
        <route edges="-1568 -1089 -937 939"/>
    </vehicle>
    <vehicle id="262" depart="436.00">
        <route edges="-1568 -1089 -937 939"/>
    </vehicle>
    <vehicle id="263" depart="439.00">
        <route edges="-1690 -541 -1092 -943 949 1108 1677"/>
    </vehicle>
    <vehicle id="264" depart="444.00">
        <route edges="-330 338 485 533 937 1089 1568"/>
    </vehicle>
    <vehicle id="265" depart="447.00">
        <route edges="-819 -330 338 541 1690"/>
    </vehicle>
    <vehicle id="266" depart="447.00">
        <route edges="275 338 541 1690"/>
    </vehicle>
    <vehicle id="267" depart="449.00">
        <route edges="-1104 1108 1677"/>
    </vehicle>
    <vehicle id="268" depart="451.00">
        <route edges="-1102 1092 485 533 937 1089 1568"/>
    </vehicle>
    <vehicle id="269" depart="452.00">
        <route edges="275 330 833 1085"/>
    </vehicle>
    <vehicle id="270" depart="454.00">
        <route edges="-939 -533 -485 541 1690"/>
    </vehicle>
    <vehicle id="271" depart="458.00">
        <route edges="-531 -485 -338 330 833 1085"/>
    </vehicle>
    <vehicle id="272" depart="460.00">
        <route edges="-1102 1092 -338 330 819"/>
    </vehicle>
    <vehicle id="273" depart="464.00">
        <route edges="-1102 1092 -338 330 833 1085"/>
    </vehicle>
    <vehicle id="274" depart="466.00">
        <route edges="-1568 -1089 -937 -533 -485 -338 330 833 1085"/>
    </vehicle>
    <vehicle id="275" depart="467.00">
        <route edges="-1568 -1089 -937 937 1089 1568"/>
    </vehicle>