<?xml version="1.0" encoding="UTF-8"?>

<!-- generated on 2023-11-04 20:30:19 by Eclipse SUMO netedit Version v1_18_0+1767-2a5073732ae
<configuration xmlns:xsi="http://www.w3.org/2001/XMLSchema-instance" xsi:noNamespaceSchemaLocation="http://sumo.dlr.de/xsd/neteditConfiguration.xsd">

    <input>
        <sumo-net-file value="/Users/rohitbokade/pytsc/pytsc/scenarios/sumo/2x2_sumo_grid/2x2_sumo_grid.net.xml"/>
    </input>

    <output>
        <output-file value="/Users/rohitbokade/pytsc/pytsc/scenarios/sumo/2x2_sumo_grid/2x2_sumo_grid.net.xml"/>
    </output>

    <processing>
        <geometry.min-radius.fix.railways value="false"/>
        <geometry.max-grade.fix value="false"/>
        <offset.disable-normalization value="true"/>
        <lefthand value="0"/>
    </processing>

    <junctions>
        <no-turnarounds value="true"/>
        <junctions.corner-detail value="5"/>
        <junctions.limit-turn-speed value="5.50"/>
        <rectangular-lane-cut value="0"/>
    </junctions>

    <pedestrian>
        <walkingareas value="0"/>
    </pedestrian>

</configuration>
-->

<net version="1.16" junctionCornerDetail="5" limitTurnSpeed="5.50" xmlns:xsi="http://www.w3.org/2001/XMLSchema-instance" xsi:noNamespaceSchemaLocation="http://sumo.dlr.de/xsd/net_file.xsd">

    <location netOffset="0.00,0.00" convBoundary="0.00,0.00,900.00,900.00" origBoundary="0.00,0.00,900.00,900.00" projParameter="!"/>

    <edge id=":A0_0" function="internal">
        <lane id=":A0_0_0" index="0" speed="6.51" length="9.03" shape="292.00,313.60 291.65,311.15 290.60,309.40 288.85,308.35 286.40,308.00"/>
    </edge>
    <edge id=":A0_1" function="internal">
        <lane id=":A0_1_0" index="0" speed="13.89" length="27.20" shape="292.00,313.60 292.00,286.40"/>
        <lane id=":A0_1_1" index="1" speed="13.89" length="27.20" shape="295.20,313.60 295.20,286.40"/>
        <lane id=":A0_1_2" index="2" speed="13.89" length="27.20" shape="298.40,313.60 298.40,286.40"/>
    </edge>
    <edge id=":A0_4" function="internal">
        <lane id=":A0_4_0" index="0" speed="10.36" length="5.01" shape="298.40,313.60 299.11,308.64"/>
    </edge>
    <edge id=":A0_20" function="internal">
        <lane id=":A0_20_0" index="0" speed="10.36" length="19.50" shape="299.11,308.64 299.35,306.95 302.20,302.20 306.95,299.35 313.60,298.40"/>
    </edge>
    <edge id=":A0_5" function="internal">
        <lane id=":A0_5_0" index="0" speed="6.51" length="9.03" shape="313.60,308.00 311.15,308.35 309.40,309.40 308.35,311.15 308.00,313.60"/>
    </edge>
    <edge id=":A0_6" function="internal">
        <lane id=":A0_6_0" index="0" speed="13.89" length="27.20" shape="313.60,308.00 286.40,308.00"/>
        <lane id=":A0_6_1" index="1" speed="13.89" length="27.20" shape="313.60,304.80 286.40,304.80"/>
        <lane id=":A0_6_2" index="2" speed="13.89" length="27.20" shape="313.60,301.60 286.40,301.60"/>
    </edge>
    <edge id=":A0_9" function="internal">
        <lane id=":A0_9_0" index="0" speed="10.36" length="5.01" shape="313.60,301.60 308.64,300.89"/>
    </edge>
    <edge id=":A0_21" function="internal">
        <lane id=":A0_21_0" index="0" speed="10.36" length="19.50" shape="308.64,300.89 306.95,300.65 302.20,297.80 299.35,293.05 298.40,286.40"/>
    </edge>
    <edge id=":A0_10" function="internal">
        <lane id=":A0_10_0" index="0" speed="6.51" length="9.03" shape="308.00,286.40 308.35,288.85 309.40,290.60 311.15,291.65 313.60,292.00"/>
    </edge>
    <edge id=":A0_11" function="internal">
        <lane id=":A0_11_0" index="0" speed="13.89" length="27.20" shape="308.00,286.40 308.00,313.60"/>
        <lane id=":A0_11_1" index="1" speed="13.89" length="27.20" shape="304.80,286.40 304.80,313.60"/>
        <lane id=":A0_11_2" index="2" speed="13.89" length="27.20" shape="301.60,286.40 301.60,313.60"/>
    </edge>
    <edge id=":A0_14" function="internal">
        <lane id=":A0_14_0" index="0" speed="10.36" length="5.01" shape="301.60,286.40 300.89,291.36"/>
    </edge>
    <edge id=":A0_22" function="internal">
        <lane id=":A0_22_0" index="0" speed="10.36" length="19.50" shape="300.89,291.36 300.65,293.05 297.80,297.80 293.05,300.65 286.40,301.60"/>
    </edge>
    <edge id=":A0_15" function="internal">
        <lane id=":A0_15_0" index="0" speed="6.51" length="9.03" shape="286.40,292.00 288.85,291.65 290.60,290.60 291.65,288.85 292.00,286.40"/>
    </edge>
    <edge id=":A0_16" function="internal">
        <lane id=":A0_16_0" index="0" speed="13.89" length="27.20" shape="286.40,292.00 313.60,292.00"/>
        <lane id=":A0_16_1" index="1" speed="13.89" length="27.20" shape="286.40,295.20 313.60,295.20"/>
        <lane id=":A0_16_2" index="2" speed="13.89" length="27.20" shape="286.40,298.40 313.60,298.40"/>
    </edge>
    <edge id=":A0_19" function="internal">
        <lane id=":A0_19_0" index="0" speed="10.36" length="5.01" shape="286.40,298.40 291.36,299.11"/>
    </edge>
    <edge id=":A0_23" function="internal">
        <lane id=":A0_23_0" index="0" speed="10.36" length="19.50" shape="291.36,299.11 293.05,299.35 297.80,302.20 300.65,306.95 301.60,313.60"/>
    </edge>
    <edge id=":A1_0" function="internal">
        <lane id=":A1_0_0" index="0" speed="6.51" length="9.03" shape="292.00,613.60 291.65,611.15 290.60,609.40 288.85,608.35 286.40,608.00"/>
    </edge>
    <edge id=":A1_1" function="internal">
        <lane id=":A1_1_0" index="0" speed="13.89" length="27.20" shape="292.00,613.60 292.00,586.40"/>
        <lane id=":A1_1_1" index="1" speed="13.89" length="27.20" shape="295.20,613.60 295.20,586.40"/>
        <lane id=":A1_1_2" index="2" speed="13.89" length="27.20" shape="298.40,613.60 298.40,586.40"/>
    </edge>
    <edge id=":A1_4" function="internal">
        <lane id=":A1_4_0" index="0" speed="10.36" length="5.01" shape="298.40,613.60 299.11,608.64"/>
    </edge>
    <edge id=":A1_20" function="internal">
        <lane id=":A1_20_0" index="0" speed="10.36" length="19.50" shape="299.11,608.64 299.35,606.95 302.20,602.20 306.95,599.35 313.60,598.40"/>
    </edge>
    <edge id=":A1_5" function="internal">
        <lane id=":A1_5_0" index="0" speed="6.51" length="9.03" shape="313.60,608.00 311.15,608.35 309.40,609.40 308.35,611.15 308.00,613.60"/>
    </edge>
    <edge id=":A1_6" function="internal">
        <lane id=":A1_6_0" index="0" speed="13.89" length="27.20" shape="313.60,608.00 286.40,608.00"/>
        <lane id=":A1_6_1" index="1" speed="13.89" length="27.20" shape="313.60,604.80 286.40,604.80"/>
        <lane id=":A1_6_2" index="2" speed="13.89" length="27.20" shape="313.60,601.60 286.40,601.60"/>
    </edge>
    <edge id=":A1_9" function="internal">
        <lane id=":A1_9_0" index="0" speed="10.36" length="5.01" shape="313.60,601.60 308.64,600.89"/>
    </edge>
    <edge id=":A1_21" function="internal">
        <lane id=":A1_21_0" index="0" speed="10.36" length="19.50" shape="308.64,600.89 306.95,600.65 302.20,597.80 299.35,593.05 298.40,586.40"/>
    </edge>
    <edge id=":A1_10" function="internal">
        <lane id=":A1_10_0" index="0" speed="6.51" length="9.03" shape="308.00,586.40 308.35,588.85 309.40,590.60 311.15,591.65 313.60,592.00"/>
    </edge>
    <edge id=":A1_11" function="internal">
        <lane id=":A1_11_0" index="0" speed="13.89" length="27.20" shape="308.00,586.40 308.00,613.60"/>
        <lane id=":A1_11_1" index="1" speed="13.89" length="27.20" shape="304.80,586.40 304.80,613.60"/>
        <lane id=":A1_11_2" index="2" speed="13.89" length="27.20" shape="301.60,586.40 301.60,613.60"/>
    </edge>
    <edge id=":A1_14" function="internal">
        <lane id=":A1_14_0" index="0" speed="10.36" length="5.01" shape="301.60,586.40 300.89,591.36"/>
    </edge>
    <edge id=":A1_22" function="internal">
        <lane id=":A1_22_0" index="0" speed="10.36" length="19.50" shape="300.89,591.36 300.65,593.05 297.80,597.80 293.05,600.65 286.40,601.60"/>
    </edge>
    <edge id=":A1_15" function="internal">
        <lane id=":A1_15_0" index="0" speed="6.51" length="9.03" shape="286.40,592.00 288.85,591.65 290.60,590.60 291.65,588.85 292.00,586.40"/>
    </edge>
    <edge id=":A1_16" function="internal">
        <lane id=":A1_16_0" index="0" speed="13.89" length="27.20" shape="286.40,592.00 313.60,592.00"/>
        <lane id=":A1_16_1" index="1" speed="13.89" length="27.20" shape="286.40,595.20 313.60,595.20"/>
        <lane id=":A1_16_2" index="2" speed="13.89" length="27.20" shape="286.40,598.40 313.60,598.40"/>
    </edge>
    <edge id=":A1_19" function="internal">
        <lane id=":A1_19_0" index="0" speed="10.36" length="5.01" shape="286.40,598.40 291.36,599.11"/>
    </edge>
    <edge id=":A1_23" function="internal">
        <lane id=":A1_23_0" index="0" speed="10.36" length="19.50" shape="291.36,599.11 293.05,599.35 297.80,602.20 300.65,606.95 301.60,613.60"/>
    </edge>
    <edge id=":B0_0" function="internal">
        <lane id=":B0_0_0" index="0" speed="6.51" length="9.03" shape="592.00,313.60 591.65,311.15 590.60,309.40 588.85,308.35 586.40,308.00"/>
    </edge>
    <edge id=":B0_1" function="internal">
        <lane id=":B0_1_0" index="0" speed="13.89" length="27.20" shape="592.00,313.60 592.00,286.40"/>
        <lane id=":B0_1_1" index="1" speed="13.89" length="27.20" shape="595.20,313.60 595.20,286.40"/>
        <lane id=":B0_1_2" index="2" speed="13.89" length="27.20" shape="598.40,313.60 598.40,286.40"/>
    </edge>
    <edge id=":B0_4" function="internal">
        <lane id=":B0_4_0" index="0" speed="10.36" length="5.01" shape="598.40,313.60 599.11,308.64"/>
    </edge>
    <edge id=":B0_20" function="internal">
        <lane id=":B0_20_0" index="0" speed="10.36" length="19.50" shape="599.11,308.64 599.35,306.95 602.20,302.20 606.95,299.35 613.60,298.40"/>
    </edge>
    <edge id=":B0_5" function="internal">
        <lane id=":B0_5_0" index="0" speed="6.51" length="9.03" shape="613.60,308.00 611.15,308.35 609.40,309.40 608.35,311.15 608.00,313.60"/>
    </edge>
    <edge id=":B0_6" function="internal">
        <lane id=":B0_6_0" index="0" speed="13.89" length="27.20" shape="613.60,308.00 586.40,308.00"/>
        <lane id=":B0_6_1" index="1" speed="13.89" length="27.20" shape="613.60,304.80 586.40,304.80"/>
        <lane id=":B0_6_2" index="2" speed="13.89" length="27.20" shape="613.60,301.60 586.40,301.60"/>
    </edge>
    <edge id=":B0_9" function="internal">
        <lane id=":B0_9_0" index="0" speed="10.36" length="5.01" shape="613.60,301.60 608.64,300.89"/>
    </edge>
    <edge id=":B0_21" function="internal">
        <lane id=":B0_21_0" index="0" speed="10.36" length="19.50" shape="608.64,300.89 606.95,300.65 602.20,297.80 599.35,293.05 598.40,286.40"/>
    </edge>
    <edge id=":B0_10" function="internal">
        <lane id=":B0_10_0" index="0" speed="6.51" length="9.03" shape="608.00,286.40 608.35,288.85 609.40,290.60 611.15,291.65 613.60,292.00"/>
    </edge>
    <edge id=":B0_11" function="internal">
        <lane id=":B0_11_0" index="0" speed="13.89" length="27.20" shape="608.00,286.40 608.00,313.60"/>
        <lane id=":B0_11_1" index="1" speed="13.89" length="27.20" shape="604.80,286.40 604.80,313.60"/>
        <lane id=":B0_11_2" index="2" speed="13.89" length="27.20" shape="601.60,286.40 601.60,313.60"/>
    </edge>
    <edge id=":B0_14" function="internal">
        <lane id=":B0_14_0" index="0" speed="10.36" length="5.01" shape="601.60,286.40 600.89,291.36"/>
    </edge>
    <edge id=":B0_22" function="internal">
        <lane id=":B0_22_0" index="0" speed="10.36" length="19.50" shape="600.89,291.36 600.65,293.05 597.80,297.80 593.05,300.65 586.40,301.60"/>
    </edge>
    <edge id=":B0_15" function="internal">
        <lane id=":B0_15_0" index="0" speed="6.51" length="9.03" shape="586.40,292.00 588.85,291.65 590.60,290.60 591.65,288.85 592.00,286.40"/>
    </edge>
    <edge id=":B0_16" function="internal">
        <lane id=":B0_16_0" index="0" speed="13.89" length="27.20" shape="586.40,292.00 613.60,292.00"/>
        <lane id=":B0_16_1" index="1" speed="13.89" length="27.20" shape="586.40,295.20 613.60,295.20"/>
        <lane id=":B0_16_2" index="2" speed="13.89" length="27.20" shape="586.40,298.40 613.60,298.40"/>
    </edge>
    <edge id=":B0_19" function="internal">
        <lane id=":B0_19_0" index="0" speed="10.36" length="5.01" shape="586.40,298.40 591.36,299.11"/>
    </edge>
    <edge id=":B0_23" function="internal">
        <lane id=":B0_23_0" index="0" speed="10.36" length="19.50" shape="591.36,299.11 593.05,299.35 597.80,302.20 600.65,306.95 601.60,313.60"/>
    </edge>
    <edge id=":B1_0" function="internal">
        <lane id=":B1_0_0" index="0" speed="6.51" length="9.03" shape="592.00,613.60 591.65,611.15 590.60,609.40 588.85,608.35 586.40,608.00"/>
    </edge>
    <edge id=":B1_1" function="internal">
        <lane id=":B1_1_0" index="0" speed="13.89" length="27.20" shape="592.00,613.60 592.00,586.40"/>
        <lane id=":B1_1_1" index="1" speed="13.89" length="27.20" shape="595.20,613.60 595.20,586.40"/>
        <lane id=":B1_1_2" index="2" speed="13.89" length="27.20" shape="598.40,613.60 598.40,586.40"/>
    </edge>
    <edge id=":B1_4" function="internal">
        <lane id=":B1_4_0" index="0" speed="10.36" length="5.01" shape="598.40,613.60 599.11,608.64"/>
    </edge>
    <edge id=":B1_20" function="internal">
        <lane id=":B1_20_0" index="0" speed="10.36" length="19.50" shape="599.11,608.64 599.35,606.95 602.20,602.20 606.95,599.35 613.60,598.40"/>
    </edge>
    <edge id=":B1_5" function="internal">
        <lane id=":B1_5_0" index="0" speed="6.51" length="9.03" shape="613.60,608.00 611.15,608.35 609.40,609.40 608.35,611.15 608.00,613.60"/>
    </edge>
    <edge id=":B1_6" function="internal">
        <lane id=":B1_6_0" index="0" speed="13.89" length="27.20" shape="613.60,608.00 586.40,608.00"/>
        <lane id=":B1_6_1" index="1" speed="13.89" length="27.20" shape="613.60,604.80 586.40,604.80"/>
        <lane id=":B1_6_2" index="2" speed="13.89" length="27.20" shape="613.60,601.60 586.40,601.60"/>
    </edge>
    <edge id=":B1_9" function="internal">
        <lane id=":B1_9_0" index="0" speed="10.36" length="5.01" shape="613.60,601.60 608.64,600.89"/>
    </edge>
    <edge id=":B1_21" function="internal">
        <lane id=":B1_21_0" index="0" speed="10.36" length="19.50" shape="608.64,600.89 606.95,600.65 602.20,597.80 599.35,593.05 598.40,586.40"/>
    </edge>
    <edge id=":B1_10" function="internal">
        <lane id=":B1_10_0" index="0" speed="6.51" length="9.03" shape="608.00,586.40 608.35,588.85 609.40,590.60 611.15,591.65 613.60,592.00"/>
    </edge>
    <edge id=":B1_11" function="internal">
        <lane id=":B1_11_0" index="0" speed="13.89" length="27.20" shape="608.00,586.40 608.00,613.60"/>
        <lane id=":B1_11_1" index="1" speed="13.89" length="27.20" shape="604.80,586.40 604.80,613.60"/>
        <lane id=":B1_11_2" index="2" speed="13.89" length="27.20" shape="601.60,586.40 601.60,613.60"/>
    </edge>
    <edge id=":B1_14" function="internal">
        <lane id=":B1_14_0" index="0" speed="10.36" length="5.01" shape="601.60,586.40 600.89,591.36"/>
    </edge>
    <edge id=":B1_22" function="internal">
        <lane id=":B1_22_0" index="0" speed="10.36" length="19.50" shape="600.89,591.36 600.65,593.05 597.80,597.80 593.05,600.65 586.40,601.60"/>
    </edge>
    <edge id=":B1_15" function="internal">
        <lane id=":B1_15_0" index="0" speed="6.51" length="9.03" shape="586.40,592.00 588.85,591.65 590.60,590.60 591.65,588.85 592.00,586.40"/>
    </edge>
    <edge id=":B1_16" function="internal">
        <lane id=":B1_16_0" index="0" speed="13.89" length="27.20" shape="586.40,592.00 613.60,592.00"/>
        <lane id=":B1_16_1" index="1" speed="13.89" length="27.20" shape="586.40,595.20 613.60,595.20"/>
        <lane id=":B1_16_2" index="2" speed="13.89" length="27.20" shape="586.40,598.40 613.60,598.40"/>
    </edge>
    <edge id=":B1_19" function="internal">
        <lane id=":B1_19_0" index="0" speed="10.36" length="5.01" shape="586.40,598.40 591.36,599.11"/>
    </edge>
    <edge id=":B1_23" function="internal">
        <lane id=":B1_23_0" index="0" speed="10.36" length="19.50" shape="591.36,599.11 593.05,599.35 597.80,602.20 600.65,606.95 601.60,613.60"/>
    </edge>

    <edge id="A0A1" from="A0" to="A1" priority="-1">
        <lane id="A0A1_0" index="0" speed="13.89" length="272.80" shape="308.00,313.60 308.00,586.40"/>
        <lane id="A0A1_1" index="1" speed="13.89" length="272.80" shape="304.80,313.60 304.80,586.40"/>
        <lane id="A0A1_2" index="2" speed="13.89" length="272.80" shape="301.60,313.60 301.60,586.40"/>
    </edge>
    <edge id="A0B0" from="A0" to="B0" priority="-1">
        <lane id="A0B0_0" index="0" speed="13.89" length="272.80" shape="313.60,292.00 586.40,292.00"/>
        <lane id="A0B0_1" index="1" speed="13.89" length="272.80" shape="313.60,295.20 586.40,295.20"/>
        <lane id="A0B0_2" index="2" speed="13.89" length="272.80" shape="313.60,298.40 586.40,298.40"/>
    </edge>
    <edge id="A0bottom0" from="A0" to="bottom0" priority="-1">
        <lane id="A0bottom0_0" index="0" speed="13.89" length="286.40" shape="292.00,286.40 292.00,0.00"/>
        <lane id="A0bottom0_1" index="1" speed="13.89" length="286.40" shape="295.20,286.40 295.20,0.00"/>
        <lane id="A0bottom0_2" index="2" speed="13.89" length="286.40" shape="298.40,286.40 298.40,0.00"/>
    </edge>
    <edge id="A0left0" from="A0" to="left0" priority="-1">
        <lane id="A0left0_0" index="0" speed="13.89" length="286.40" shape="286.40,308.00 0.00,308.00"/>
        <lane id="A0left0_1" index="1" speed="13.89" length="286.40" shape="286.40,304.80 0.00,304.80"/>
        <lane id="A0left0_2" index="2" speed="13.89" length="286.40" shape="286.40,301.60 0.00,301.60"/>
    </edge>
    <edge id="A1A0" from="A1" to="A0" priority="-1">
        <lane id="A1A0_0" index="0" speed="13.89" length="272.80" shape="292.00,586.40 292.00,313.60"/>
        <lane id="A1A0_1" index="1" speed="13.89" length="272.80" shape="295.20,586.40 295.20,313.60"/>
        <lane id="A1A0_2" index="2" speed="13.89" length="272.80" shape="298.40,586.40 298.40,313.60"/>
    </edge>
    <edge id="A1B1" from="A1" to="B1" priority="-1">
        <lane id="A1B1_0" index="0" speed="13.89" length="272.80" shape="313.60,592.00 586.40,592.00"/>
        <lane id="A1B1_1" index="1" speed="13.89" length="272.80" shape="313.60,595.20 586.40,595.20"/>
        <lane id="A1B1_2" index="2" speed="13.89" length="272.80" shape="313.60,598.40 586.40,598.40"/>
    </edge>
    <edge id="A1left1" from="A1" to="left1" priority="-1">
        <lane id="A1left1_0" index="0" speed="13.89" length="286.40" shape="286.40,608.00 0.00,608.00"/>
        <lane id="A1left1_1" index="1" speed="13.89" length="286.40" shape="286.40,604.80 0.00,604.80"/>
        <lane id="A1left1_2" index="2" speed="13.89" length="286.40" shape="286.40,601.60 0.00,601.60"/>
    </edge>
    <edge id="A1top0" from="A1" to="top0" priority="-1">
        <lane id="A1top0_0" index="0" speed="13.89" length="286.40" shape="308.00,613.60 308.00,900.00"/>
        <lane id="A1top0_1" index="1" speed="13.89" length="286.40" shape="304.80,613.60 304.80,900.00"/>
        <lane id="A1top0_2" index="2" speed="13.89" length="286.40" shape="301.60,613.60 301.60,900.00"/>
    </edge>
    <edge id="B0A0" from="B0" to="A0" priority="-1">
        <lane id="B0A0_0" index="0" speed="13.89" length="272.80" shape="586.40,308.00 313.60,308.00"/>
        <lane id="B0A0_1" index="1" speed="13.89" length="272.80" shape="586.40,304.80 313.60,304.80"/>
        <lane id="B0A0_2" index="2" speed="13.89" length="272.80" shape="586.40,301.60 313.60,301.60"/>
    </edge>
    <edge id="B0B1" from="B0" to="B1" priority="-1">
        <lane id="B0B1_0" index="0" speed="13.89" length="272.80" shape="608.00,313.60 608.00,586.40"/>
        <lane id="B0B1_1" index="1" speed="13.89" length="272.80" shape="604.80,313.60 604.80,586.40"/>
        <lane id="B0B1_2" index="2" speed="13.89" length="272.80" shape="601.60,313.60 601.60,586.40"/>
    </edge>
    <edge id="B0bottom1" from="B0" to="bottom1" priority="-1">
        <lane id="B0bottom1_0" index="0" speed="13.89" length="286.40" shape="592.00,286.40 592.00,0.00"/>
        <lane id="B0bottom1_1" index="1" speed="13.89" length="286.40" shape="595.20,286.40 595.20,0.00"/>
        <lane id="B0bottom1_2" index="2" speed="13.89" length="286.40" shape="598.40,286.40 598.40,0.00"/>
    </edge>
    <edge id="B0right0" from="B0" to="right0" priority="-1">
        <lane id="B0right0_0" index="0" speed="13.89" length="286.40" shape="613.60,292.00 900.00,292.00"/>
        <lane id="B0right0_1" index="1" speed="13.89" length="286.40" shape="613.60,295.20 900.00,295.20"/>
        <lane id="B0right0_2" index="2" speed="13.89" length="286.40" shape="613.60,298.40 900.00,298.40"/>
    </edge>
    <edge id="B1A1" from="B1" to="A1" priority="-1">
        <lane id="B1A1_0" index="0" speed="13.89" length="272.80" shape="586.40,608.00 313.60,608.00"/>
        <lane id="B1A1_1" index="1" speed="13.89" length="272.80" shape="586.40,604.80 313.60,604.80"/>
        <lane id="B1A1_2" index="2" speed="13.89" length="272.80" shape="586.40,601.60 313.60,601.60"/>
    </edge>
    <edge id="B1B0" from="B1" to="B0" priority="-1">
        <lane id="B1B0_0" index="0" speed="13.89" length="272.80" shape="592.00,586.40 592.00,313.60"/>
        <lane id="B1B0_1" index="1" speed="13.89" length="272.80" shape="595.20,586.40 595.20,313.60"/>
        <lane id="B1B0_2" index="2" speed="13.89" length="272.80" shape="598.40,586.40 598.40,313.60"/>
    </edge>
    <edge id="B1right1" from="B1" to="right1" priority="-1">
        <lane id="B1right1_0" index="0" speed="13.89" length="286.40" shape="613.60,592.00 900.00,592.00"/>
        <lane id="B1right1_1" index="1" speed="13.89" length="286.40" shape="613.60,595.20 900.00,595.20"/>
        <lane id="B1right1_2" index="2" speed="13.89" length="286.40" shape="613.60,598.40 900.00,598.40"/>
    </edge>
    <edge id="B1top1" from="B1" to="top1" priority="-1">
        <lane id="B1top1_0" index="0" speed="13.89" length="286.40" shape="608.00,613.60 608.00,900.00"/>
        <lane id="B1top1_1" index="1" speed="13.89" length="286.40" shape="604.80,613.60 604.80,900.00"/>
        <lane id="B1top1_2" index="2" speed="13.89" length="286.40" shape="601.60,613.60 601.60,900.00"/>
    </edge>
    <edge id="bottom0A0" from="bottom0" to="A0" priority="-1">
        <lane id="bottom0A0_0" index="0" speed="13.89" length="286.40" shape="308.00,0.00 308.00,286.40"/>
        <lane id="bottom0A0_1" index="1" speed="13.89" length="286.40" shape="304.80,0.00 304.80,286.40"/>
        <lane id="bottom0A0_2" index="2" speed="13.89" length="286.40" shape="301.60,0.00 301.60,286.40"/>
    </edge>
    <edge id="bottom1B0" from="bottom1" to="B0" priority="-1">
        <lane id="bottom1B0_0" index="0" speed="13.89" length="286.40" shape="608.00,0.00 608.00,286.40"/>
        <lane id="bottom1B0_1" index="1" speed="13.89" length="286.40" shape="604.80,0.00 604.80,286.40"/>
        <lane id="bottom1B0_2" index="2" speed="13.89" length="286.40" shape="601.60,0.00 601.60,286.40"/>
    </edge>
    <edge id="left0A0" from="left0" to="A0" priority="-1">
        <lane id="left0A0_0" index="0" speed="13.89" length="286.40" shape="0.00,292.00 286.40,292.00"/>
        <lane id="left0A0_1" index="1" speed="13.89" length="286.40" shape="0.00,295.20 286.40,295.20"/>
        <lane id="left0A0_2" index="2" speed="13.89" length="286.40" shape="0.00,298.40 286.40,298.40"/>
    </edge>
    <edge id="left1A1" from="left1" to="A1" priority="-1">
        <lane id="left1A1_0" index="0" speed="13.89" length="286.40" shape="0.00,592.00 286.40,592.00"/>
        <lane id="left1A1_1" index="1" speed="13.89" length="286.40" shape="0.00,595.20 286.40,595.20"/>
        <lane id="left1A1_2" index="2" speed="13.89" length="286.40" shape="0.00,598.40 286.40,598.40"/>
    </edge>
    <edge id="right0B0" from="right0" to="B0" priority="-1">
        <lane id="right0B0_0" index="0" speed="13.89" length="286.40" shape="900.00,308.00 613.60,308.00"/>
        <lane id="right0B0_1" index="1" speed="13.89" length="286.40" shape="900.00,304.80 613.60,304.80"/>
        <lane id="right0B0_2" index="2" speed="13.89" length="286.40" shape="900.00,301.60 613.60,301.60"/>
    </edge>
    <edge id="right1B1" from="right1" to="B1" priority="-1">
        <lane id="right1B1_0" index="0" speed="13.89" length="286.40" shape="900.00,608.00 613.60,608.00"/>
        <lane id="right1B1_1" index="1" speed="13.89" length="286.40" shape="900.00,604.80 613.60,604.80"/>
        <lane id="right1B1_2" index="2" speed="13.89" length="286.40" shape="900.00,601.60 613.60,601.60"/>
    </edge>
    <edge id="top0A1" from="top0" to="A1" priority="-1">
        <lane id="top0A1_0" index="0" speed="13.89" length="286.40" shape="292.00,900.00 292.00,613.60"/>
        <lane id="top0A1_1" index="1" speed="13.89" length="286.40" shape="295.20,900.00 295.20,613.60"/>
        <lane id="top0A1_2" index="2" speed="13.89" length="286.40" shape="298.40,900.00 298.40,613.60"/>
    </edge>
    <edge id="top1B1" from="top1" to="B1" priority="-1">
        <lane id="top1B1_0" index="0" speed="13.89" length="286.40" shape="592.00,900.00 592.00,613.60"/>
        <lane id="top1B1_1" index="1" speed="13.89" length="286.40" shape="595.20,900.00 595.20,613.60"/>
        <lane id="top1B1_2" index="2" speed="13.89" length="286.40" shape="598.40,900.00 598.40,613.60"/>
    </edge>

    <tlLogic id="A0" type="delay_based" programID="0" offset="0">
        <phase duration="42" state="GGGGgrrrrrGGGGgrrrrr" minDur="5" maxDur="50"/>
        <phase duration="3"  state="yyyyyrrrrryyyyyrrrrr"/>
        <phase duration="42" state="rrrrrGGGGgrrrrrGGGGg" minDur="5" maxDur="50"/>
        <phase duration="3"  state="rrrrryyyyyrrrrryyyyy"/>
    </tlLogic>
    <tlLogic id="A1" type="delay_based" programID="0" offset="0">
        <phase duration="42" state="GGGGgrrrrrGGGGgrrrrr" minDur="5" maxDur="50"/>
        <phase duration="3"  state="yyyyyrrrrryyyyyrrrrr"/>
        <phase duration="42" state="rrrrrGGGGgrrrrrGGGGg" minDur="5" maxDur="50"/>
        <phase duration="3"  state="rrrrryyyyyrrrrryyyyy"/>
    </tlLogic>
    <tlLogic id="B0" type="delay_based" programID="0" offset="0">
        <phase duration="42" state="GGGGgrrrrrGGGGgrrrrr" minDur="5" maxDur="50"/>
        <phase duration="3"  state="yyyyyrrrrryyyyyrrrrr"/>
        <phase duration="42" state="rrrrrGGGGgrrrrrGGGGg" minDur="5" maxDur="50"/>
        <phase duration="3"  state="rrrrryyyyyrrrrryyyyy"/>
    </tlLogic>
    <tlLogic id="B1" type="delay_based" programID="0" offset="0">
        <phase duration="42" state="GGGGgrrrrrGGGGgrrrrr" minDur="5" maxDur="50"/>
        <phase duration="3"  state="yyyyyrrrrryyyyyrrrrr"/>
        <phase duration="42" state="rrrrrGGGGgrrrrrGGGGg" minDur="5" maxDur="50"/>
        <phase duration="3"  state="rrrrryyyyyrrrrryyyyy"/>
    </tlLogic>

    <junction id="A0" type="traffic_light" x="300.00" y="300.00" incLanes="A1A0_0 A1A0_1 A1A0_2 B0A0_0 B0A0_1 B0A0_2 bottom0A0_0 bottom0A0_1 bottom0A0_2 left0A0_0 left0A0_1 left0A0_2" intLanes=":A0_0_0 :A0_1_0 :A0_1_1 :A0_1_2 :A0_20_0 :A0_5_0 :A0_6_0 :A0_6_1 :A0_6_2 :A0_21_0 :A0_10_0 :A0_11_0 :A0_11_1 :A0_11_2 :A0_22_0 :A0_15_0 :A0_16_0 :A0_16_1 :A0_16_2 :A0_23_0" shape="290.40,313.60 309.60,313.60 310.04,311.38 310.60,310.60 311.38,310.04 312.38,309.71 313.60,309.60 313.60,290.40 311.38,289.96 310.60,289.40 310.04,288.62 309.71,287.62 309.60,286.40 290.40,286.40 289.96,288.62 289.40,289.40 288.62,289.96 287.62,290.29 286.40,290.40 286.40,309.60 288.62,310.04 289.40,310.60 289.96,311.38 290.29,312.38">
        <request index="0"  response="00000000000000000000" foes="00000000000111000000" cont="0"/>
        <request index="1"  response="10000000001000000000" foes="11111100001111000000" cont="0"/>
        <request index="2"  response="10000000001000000000" foes="11111100001111000000" cont="0"/>
        <request index="3"  response="10000000001000000000" foes="11111100001111000000" cont="0"/>
        <request index="4"  response="10000011101000000000" foes="11110011101111000000" cont="1"/>
        <request index="5"  response="00000011100000000000" foes="00000011100000000000" cont="0"/>
        <request index="6"  response="00000111100000011111" foes="10000111100000011111" cont="0"/>
        <request index="7"  response="00000111100000011111" foes="10000111100000011111" cont="0"/>
        <request index="8"  response="00000111100000011111" foes="10000111100000011111" cont="0"/>
        <request index="9"  response="01110111100000011110" foes="01110111100000011110" cont="1"/>
        <request index="10" response="00000000000000000000" foes="01110000000000000000" cont="0"/>
        <request index="11" response="10000000001000000000" foes="11110000001111110000" cont="0"/>
        <request index="12" response="10000000001000000000" foes="11110000001111110000" cont="0"/>
        <request index="13" response="10000000001000000000" foes="11110000001111110000" cont="0"/>
        <request index="14" response="10000000001000001110" foes="11110000001111001110" cont="1"/>
        <request index="15" response="00000000000000001110" foes="00000000000000001110" cont="0"/>
        <request index="16" response="00000111110000011110" foes="00000111111000011110" cont="0"/>
        <request index="17" response="00000111110000011110" foes="00000111111000011110" cont="0"/>
        <request index="18" response="00000111110000011110" foes="00000111111000011110" cont="0"/>
        <request index="19" response="00000111100111011110" foes="00000111100111011110" cont="1"/>
    </junction>