<?xml version='1.0' encoding='UTF-8'?>
<configuration>
  <input>
    <net-file value="2x2_sumo_grid.net.xml"/>
    <route-files value="2x2_sumo_grid.rou.alt.xml"/>
  </input>
  <time>
    <begin value="0"/>
    <end value="3600"/>
  </time>
</configuration>
