<?xml version="1.0" encoding="UTF-8"?>

<!-- generated on 2023-11-04 20:33:05.064294 by randomTrips.py v1_18_0+2252-856361c42b4
<configuration>
    <net-file value="2x2_sumo_grid.net.xml"/>
    <output-trip-file value="2x2_sumo_grid.trips.xml"/>
    <route-file value="2x2_sumo_grid.rou.xml"/>
    <trip-attributes value="maxSpeed=&quot;max&quot;"/>
    <fringe-factor value="100"/>
    <remove-loops value="True"/>
    <validate value="True"/>
    <insertion-rate value="5661.0"/>
</configuration>
-->

<!-- generated on 2023-11-04 20:33:05 by Eclipse SUMO duarouter Version v1_18_0+1767-2a5073732ae
<configuration xmlns:xsi="http://www.w3.org/2001/XMLSchema-instance" xsi:noNamespaceSchemaLocation="http://sumo.dlr.de/xsd/duarouterConfiguration.xsd">

    <input>
        <net-file value="2x2_sumo_grid.net.xml"/>
        <route-files value="2x2_sumo_grid.trips.xml"/>
    </input>

    <output>
        <output-file value="2x2_sumo_grid.rou.xml"/>
        <alternatives-output value="NUL"/>
    </output>

    <processing>
        <remove-loops value="true"/>
    </processing>

    <time>
        <begin value="0.0"/>
        <end value="3600.0"/>
    </time>

    <report>
        <no-warnings value="true"/>
        <ignore-errors value="true"/>
        <no-step-log value="true"/>
    </report>

</configuration>
-->

<routes xmlns:xsi="http://www.w3.org/2001/XMLSchema-instance" xsi:noNamespaceSchemaLocation="http://sumo.dlr.de/xsd/routes_file.xsd">
    <vehicle id="0" depart="0.00">
        <route edges="right1B1 B1A1 A1A0 A0bottom0"/>
    </vehicle>
    <vehicle id="1" depart="0.64">
        <route edges="left0A0 A0A1 A1B1 B1B0 B0A0 A0left0"/>
    </vehicle>
    <vehicle id="2" depart="1.27">
        <route edges="right1B1 B1B0 B0right0"/>
    </vehicle>
    <vehicle id="3" depart="1.91">
        <route edges="top1B1 B1B0 B0A0 A0bottom0"/>
    </vehicle>
    <vehicle id="4" depart="2.54">
        <route edges="left1A1 A1A0 A0bottom0"/>
    </vehicle>
    <vehicle id="5" depart="3.18">
        <route edges="bottom1B0 B0A0 A0A1 A1B1 B1B0 B0bottom1"/>
    </vehicle>
    <vehicle id="6" depart="3.82">
        <route edges="bottom0A0 A0left0"/>
    </vehicle>
    <vehicle id="7" depart="4.45">
        <route edges="right1B1 B1B0 B0bottom1"/>
    </vehicle>
    <vehicle id="8" depart="5.09">
        <route edges="bottom1B0 B0A0 A0A1 A1B1 B1B0 B0bottom1"/>
    </vehicle>
    <vehicle id="9" depart="5.72">
        <route edges="top0A1 A1A0 A0bottom0"/>
    </vehicle>
    <vehicle id="10" depart="6.36">
        <route edges="top0A1 A1A0 A0B0 B0right0"/>
    </vehicle>
    <vehicle id="11" depart="7.00">
        <route edges="left0A0 A0A1 A1B1 B1B0 B0A0 A0left0"/>
    </vehicle>
    <vehicle id="12" depart="7.63">
        <route edges="top1B1 B1A1 A1left1"/>
    </vehicle>
    <vehicle id="13" depart="8.27">
        <route edges="bottom0A0 A0A1 A1B1 B1B0 B0A0 A0bottom0"/>
    </vehicle>
    <vehicle id="14" depart="8.90">
        <route edges="top0A1 A1A0 A0B0 B0bottom1"/>
    </vehicle>
    <vehicle id="15" depart="9.54">
        <route edges="top0A1 A1A0 A0B0 B0right0"/>
    </vehicle>
    <vehicle id="16" depart="10.17">
        <route edges="right0B0 B0B1 B1top1"/>
    </vehicle>
    <vehicle id="17" depart="10.81">
        <route edges="left0A0 A0B0 B0bottom1"/>
    </vehicle>
    <vehicle id="18" depart="11.45">
        <route edges="top0A1 A1A0 A0B0 B0bottom1"/>
    </vehicle>
    <vehicle id="19" depart="12.08">
        <route edges="top0A1 A1A0 A0B0 B0bottom1"/>
    </vehicle>
    <vehicle id="20" depart="12.72">
        <route edges="right1B1 B1A1 A1A0 A0bottom0"/>
    </vehicle>
    <vehicle id="21" depart="13.35">
        <route edges="bottom1B0 B0B1 B1A1 A1left1"/>
    </vehicle>
    <vehicle id="22" depart="13.99">
        <route edges="bottom0A0 A0left0"/>
    </vehicle>
    <vehicle id="23" depart="14.63">
        <route edges="bottom0A0 A0A1 A1left1"/>
    </vehicle>
    <vehicle id="24" depart="15.26">
        <route edges="right1B1 B1A1 A1left1"/>
    </vehicle>
    <vehicle id="25" depart="15.90">
        <route edges="left0A0 A0A1 A1B1 B1B0 B0A0 A0left0"/>
    </vehicle>
    <vehicle id="26" depart="16.53">
        <route edges="left0A0 A0B0 B0B1 B1top1"/>
    </vehicle>
    <vehicle id="27" depart="17.17">
        <route edges="right1B1 B1B0 B0bottom1"/>
    </vehicle>
    <vehicle id="28" depart="17.81">
        <route edges="bottom1B0 B0right0"/>
    </vehicle>
    <vehicle id="29" depart="18.44">
        <route edges="bottom1B0 B0B1 B1A1 A1top0"/>
    </vehicle>
    <vehicle id="30" depart="19.08">
        <route edges="top1B1 B1B0 B0right0"/>
    </vehicle>
    <vehicle id="31" depart="19.71">
        <route edges="right0B0 B0A0 A0A1 A1B1 B1B0 B0right0"/>
    </vehicle>
    <vehicle id="32" depart="20.35">
        <route edges="top0A1 A1B1 B1right1"/>
    </vehicle>
    <vehicle id="33" depart="20.99">
        <route edges="bottom1B0 B0A0 A0bottom0"/>
    </vehicle>
    <vehicle id="34" depart="21.62">
        <route edges="left0A0 A0A1 A1left1"/>
    </vehicle>
    <vehicle id="35" depart="22.26">
        <route edges="bottom1B0 B0B1 B1top1"/>
    </vehicle>
    <vehicle id="36" depart="22.89">
        <route edges="top1B1 B1A1 A1left1"/>
    </vehicle>
    <vehicle id="37" depart="23.53">
        <route edges="right1B1 B1A1 A1top0"/>
    </vehicle>
    <vehicle id="38" depart="24.17">
        <route edges="top1B1 B1A1 A1top0"/>
    </vehicle>
    <vehicle id="39" depart="24.80">
        <route edges="left0A0 A0A1 A1B1 B1B0 B0A0 A0left0"/>
    </vehicle>
    <vehicle id="40" depart="25.44">
        <route edges="right0B0 B0A0 A0A1 A1left1"/>
    </vehicle>
    <vehicle id="41" depart="26.07">
        <route edges="right0B0 B0B1 B1top1"/>
    </vehicle>
    <vehicle id="42" depart="26.71">
        <route edges="left1A1 A1A0 A0left0"/>
    </vehicle>
    <vehicle id="43" depart="27.34">
        <route edges="top1B1 B1B0 B0bottom1"/>
    </vehicle>
    <vehicle id="44" depart="27.98">
        <route edges="bottom0A0 A0A1 A1B1 B1B0 B0A0 A0bottom0"/>
    </vehicle>
    <vehicle id="45" depart="28.62">
        <route edges="bottom0A0 A0B0 B0right0"/>
    </vehicle>
    <vehicle id="46" depart="29.25">
        <route edges="top0A1 A1B1 B1B0 B0A0 A0A1 A1top0"/>
    </vehicle>
    <vehicle id="47" depart="29.89">
        <route edges="bottom0A0 A0A1 A1top0"/>
    </vehicle>
    <vehicle id="48" depart="30.52">
        <route edges="top1B1 B1B0 B0bottom1"/>
    </vehicle>
    <vehicle id="49" depart="31.16">
        <route edges="top1B1 B1right1"/>
    </vehicle>
    <vehicle id="50" depart="31.80">
        <route edges="bottom0A0 A0B0 B0right0"/>
    </vehicle>
    <vehicle id="51" depart="32.43">
        <route edges="right1B1 B1B0 B0bottom1"/>
    </vehicle>
    <vehicle id="52" depart="33.07">
        <route edges="left0A0 A0B0 B0right0"/>
    </vehicle>
    <vehicle id="53" depart="33.70">
        <route edges="bottom0A0 A0A1 A1top0"/>
    </vehicle>
    <vehicle id="54" depart="34.34">
        <route edges="left1A1 A1B1 B1top1"/>
    </vehicle>
    <vehicle id="55" depart="34.98">
        <route edges="top0A1 A1left1"/>
    </vehicle>
    <vehicle id="56" depart="35.61">
        <route edges="left1A1 A1A0 A0left0"/>
    </vehicle>
    <vehicle id="57" depart="36.25">
        <route edges="top1B1 B1right1"/>
    </vehicle>
    <vehicle id="58" depart="36.88">
        <route edges="left0A0 A0B0 B0right0"/>
    </vehicle>
    <vehicle id="59" depart="37.52">
        <route edges="right0B0 B0A0 A0left0"/>
    </vehicle>
    <vehicle id="60" depart="38.16">
        <route edges="top0A1 A1A0 A0B0 B0bottom1"/>
    </vehicle>
    <vehicle id="61" depart="38.79">
        <route edges="top0A1 A1A0 A0B0 B0bottom1"/>
    </vehicle>
    <vehicle id="62" depart="39.43">
        <route edges="A0A1 A1left1"/>
    </vehicle>
    <vehicle id="63" depart="40.06">
        <route edges="bottom0A0 A0A1 A1B1 B1top1"/>
    </vehicle>
    <vehicle id="64" depart="40.70">
        <route edges="top1B1 B1right1"/>
    </vehicle>
    <vehicle id="65" depart="41.34">
        <route edges="left0A0 A0bottom0"/>
    </vehicle>
    <vehicle id="66" depart="41.97">
        <route edges="top1B1 B1B0 B0A0 A0A1 A1B1 B1top1"/>
    </vehicle>
    <vehicle id="67" depart="42.61">
        <route edges="bottom0A0 A0A1 A1top0"/>
    </vehicle>
    <vehicle id="68" depart="43.24">
        <route edges="bottom0A0 A0A1 A1B1 B1right1"/>
    </vehicle>
    <vehicle id="69" depart="43.88">
        <route edges="top0A1 A1A0 A0left0"/>
    </vehicle>
    <vehicle id="70" depart="44.52">
        <route edges="left1A1 A1B1 B1B0 B0bottom1"/>
    </vehicle>
    <vehicle id="71" depart="45.15">
        <route edges="left0A0 A0B0 B0B1 B1right1"/>
    </vehicle>
    <vehicle id="72" depart="45.79">
        <route edges="left1A1 A1A0 A0left0"/>
    </vehicle>
    <vehicle id="73" depart="46.42">
        <route edges="right0B0 B0A0 A0A1 A1B1 B1B0 B0right0"/>
    </vehicle>
    <vehicle id="74" depart="47.06">
        <route edges="bottom1B0 B0B1 B1A1 A1left1"/>
    </vehicle>
    <vehicle id="75" depart="47.69">
        <route edges="top1B1 B1B0 B0right0"/>
    </vehicle>
    <vehicle id="76" depart="48.33">
        <route edges="left1A1 A1B1 B1B0 B0bottom1"/>
    </vehicle>
    <vehicle id="77" depart="48.97">
        <route edges="bottom0A0 A0left0"/>
    </vehicle>
    <vehicle id="78" depart="49.60">
        <route edges="left0A0 A0B0 B0bottom1"/>
    </vehicle>
    <vehicle id="79" depart="50.24">
        <route edges="bottom1B0 B0A0 A0left0"/>
    </vehicle>
    <vehicle id="80" depart="50.87">
        <route edges="bottom0A0 A0B0 B0right0"/>
    </vehicle>
    <vehicle id="81" depart="51.51">
        <route edges="bottom1B0 B0B1 B1top1"/>
    </vehicle>
    <vehicle id="82" depart="52.15">
        <route edges="top0A1 A1A0 A0bottom0"/>
    </vehicle>
    <vehicle id="83" depart="52.78">
        <route edges="bottom1B0 B0right0"/>
    </vehicle>
    <vehicle id="84" depart="53.42">
        <route edges="bottom1B0 B0A0 A0left0"/>
    </vehicle>
    <vehicle id="85" depart="54.05">
        <route edges="top1B1 B1B0 B0bottom1"/>
    </vehicle>
    <vehicle id="86" depart="54.69">
        <route edges="left1A1 A1B1 B1right1"/>
    </vehicle>
    <vehicle id="87" depart="55.33">
        <route edges="top0A1 A1A0 A0left0"/>
    </vehicle>
    <vehicle id="88" depart="55.96">
        <route edges="bottom0A0 A0A1 A1top0"/>
    </vehicle>
    <vehicle id="89" depart="56.60">
        <route edges="left1A1 A1top0"/>
    </vehicle>
    <vehicle id="90" depart="57.23">
        <route edges="right1B1 B1B0 B0right0"/>
    </vehicle>
    <vehicle id="91" depart="57.87">
        <route edges="top1B1 B1B0 B0A0 A0bottom0"/>
    </vehicle>
    <vehicle id="92" depart="58.51">
        <route edges="left1A1 A1B1 B1B0 B0A0 A0A1 A1left1"/>
    </vehicle>
    <vehicle id="93" depart="59.14">
        <route edges="top0A1 A1A0 A0left0"/>
    </vehicle>
    <vehicle id="94" depart="59.78">
        <route edges="bottom1B0 B0B1 B1A1 A1top0"/>
    </vehicle>
    <vehicle id="95" depart="60.41">
        <route edges="left1A1 A1B1 B1B0 B0A0 A0A1 A1left1"/>
    </vehicle>
    <vehicle id="96" depart="61.05">
        <route edges="bottom1B0 B0B1 B1top1"/>
    </vehicle>
    <vehicle id="97" depart="61.69">
        <route edges="left1A1 A1B1 B1right1"/>
    </vehicle>
    <vehicle id="98" depart="62.32">
        <route edges="right0B0 B0A0 A0bottom0"/>
    </vehicle>
    <vehicle id="99" depart="62.96">
        <route edges="top1B1 B1right1"/>
    </vehicle>
    <vehicle id="100" depart="63.59">
        <route edges="top1B1 B1B0 B0A0 A0A1 A1B1 B1top1"/>
    </vehicle>
    <vehicle id="101" depart="64.23">
        <route edges="top0A1 A1A0 A0left0"/>
    </vehicle>
    <vehicle id="102" depart="64.86">
        <route edges="left1A1 A1A0 A0left0"/>
    </vehicle>
    <vehicle id="103" depart="65.50">
        <route edges="left1A1 A1A0 A0bottom0"/>
    </vehicle>
    <vehicle id="104" depart="66.14">
        <route edges="left0A0 A0B0 B0B1 B1top1"/>
    </vehicle>
    <vehicle id="105" depart="66.77">
        <route edges="left0A0 A0B0 B0B1 B1right1"/>
    </vehicle>
    <vehicle id="106" depart="67.41">
        <route edges="left1A1 A1top0"/>
    </vehicle>
    <vehicle id="107" depart="68.04">
        <route edges="top1B1 B1B0 B0A0 A0A1 A1B1 B1top1"/>
    </vehicle>
    <vehicle id="108" depart="68.68">
        <route edges="right0B0 B0A0 A0A1 A1B1 B1B0 B0right0"/>
    </vehicle>
    <vehicle id="109" depart="69.32">
        <route edges="bottom1B0 B0B1 B1A1 A1left1"/>
    </vehicle>
    <vehicle id="110" depart="69.95">
        <route edges="top1B1 B1B0 B0bottom1"/>
    </vehicle>
    <vehicle id="111" depart="70.59">
        <route edges="right0B0 B0A0 A0A1 A1B1 B1B0 B0right0"/>
    </vehicle>
    <vehicle id="112" depart="71.22">
        <route edges="bottom0A0 A0B0 B0bottom1"/>
    </vehicle>
    <vehicle id="113" depart="71.86">
        <route edges="left1A1 A1B1 B1right1"/>
    </vehicle>
    <vehicle id="114" depart="72.50">
        <route edges="bottom1B0 B0B1 B1top1"/>
    </vehicle>
    <vehicle id="115" depart="73.13">
        <route edges="bottom0A0 A0left0"/>
    </vehicle>
    <vehicle id="116" depart="73.77">
        <route edges="right0B0 B0A0 A0A1 A1B1 B1B0 B0right0"/>
    </vehicle>
    <vehicle id="117" depart="74.40">
        <route edges="bottom1B0 B0A0 A0bottom0"/>
    </vehicle>
    <vehicle id="118" depart="75.04">
        <route edges="top1B1 B1B0 B0A0 A0left0"/>
    </vehicle>
    <vehicle id="119" depart="75.68">
        <route edges="right0B0 B0bottom1"/>
    </vehicle>
    <vehicle id="120" depart="76.31">
        <route edges="left1A1 A1B1 B1B0 B0bottom1"/>
    </vehicle>
    <vehicle id="121" depart="76.95">
        <route edges="right0B0 B0B1 B1top1"/>
    </vehicle>
    <vehicle id="122" depart="77.58">
        <route edges="bottom1B0 B0right0"/>
    </vehicle>
    <vehicle id="123" depart="78.22">
        <route edges="bottom1B0 B0B1 B1A1 A1top0"/>
    </vehicle>
    <vehicle id="124" depart="78.86">
        <route edges="right1B1 B1A1 A1left1"/>
    </vehicle>
    <vehicle id="125" depart="79.49">
        <route edges="left0A0 A0A1 A1B1 B1B0"/>
    </vehicle>
    <vehicle id="126" depart="80.13">
        <route edges="bottom0A0 A0A1 A1top0"/>
    </vehicle>
    <vehicle id="127" depart="80.76">
        <route edges="top1B1 B1B0 B0A0 A0A1 A1B1 B1top1"/>
    </vehicle>
    <vehicle id="128" depart="81.40">
        <route edges="bottom0A0 A0left0"/>
    </vehicle>
    <vehicle id="129" depart="82.03">
        <route edges="left0A0 A0B0 B0B1 B1top1"/>
    </vehicle>
    <vehicle id="130" depart="82.67">
        <route edges="top1B1 B1B0 B0A0 A0A1 A1B1 B1top1"/>
    </vehicle>
    <vehicle id="131" depart="83.31">
        <route edges="left0A0 A0A1 A1B1 B1B0 B0A0 A0left0"/>
    </vehicle>
    <vehicle id="132" depart="83.94">
        <route edges="top0A1 A1A0 A0B0 B0right0"/>
    </vehicle>
    <vehicle id="133" depart="84.58">
        <route edges="right0B0 B0B1 B1top1"/>
    </vehicle>
    <vehicle id="134" depart="85.21">
        <route edges="right1B1 B1A1 A1A0 A0bottom0"/>
    </vehicle>
    <vehicle id="135" depart="85.85">
        <route edges="top0A1 A1left1"/>
    </vehicle>
    <vehicle id="136" depart="86.49">
        <route edges="right1B1 B1top1"/>
    </vehicle>
    <vehicle id="137" depart="87.12">
        <route edges="bottom1B0 B0A0 A0bottom0"/>
    </vehicle>
    <vehicle id="138" depart="87.76">
        <route edges="bottom0A0 A0B0 B0bottom1"/>
    </vehicle>
    <vehicle id="139" depart="88.39">
        <route edges="left0A0 A0B0 B0bottom1"/>
    </vehicle>
    <vehicle id="140" depart="89.03">
        <route edges="right1B1 B1A1 A1A0 A0left0"/>
    </vehicle>
    <vehicle id="141" depart="89.67">
        <route edges="right1B1 B1A1 A1left1"/>
    </vehicle>
    <vehicle id="142" depart="90.30">
        <route edges="left1A1 A1B1 B1top1"/>
    </vehicle>
    <vehicle id="143" depart="90.94">
        <route edges="top0A1 A1A0 A0bottom0"/>
    </vehicle>
    <vehicle id="144" depart="91.57">
        <route edges="left1A1 A1B1 B1B0 B0A0 A0A1 A1left1"/>
    </vehicle>
    <vehicle id="145" depart="92.21">
        <route edges="A1A0 A0B0 B0B1 B1right1"/>
    </vehicle>
    <vehicle id="146" depart="92.85">
        <route edges="right1B1 B1A1 A1left1"/>
    </vehicle>
    <vehicle id="147" depart="93.48">
        <route edges="right1B1 B1B0 B0bottom1"/>
    </vehicle>
    <vehicle id="148" depart="94.12">
        <route edges="left1A1 A1A0 A0bottom0"/>
    </vehicle>
    <vehicle id="149" depart="94.75">
        <route edges="bottom0A0 A0A1 A1B1 B1top1"/>
    </vehicle>
    <vehicle id="150" depart="95.39">
        <route edges="top1B1 B1B0 B0bottom1"/>
    </vehicle>
    <vehicle id="151" depart="96.03">
        <route edges="top0A1 A1A0 A0B0 B0bottom1"/>
    </vehicle>
    <vehicle id="152" depart="96.66">
        <route edges="bottom1B0 B0A0 A0left0"/>
    </vehicle>
    <vehicle id="153" depart="97.30">
        <route edges="left0A0 A0B0 B0B1 B1top1"/>
    </vehicle>
    <vehicle id="154" depart="97.93">
        <route edges="top0A1 A1B1 B1right1"/>
    </vehicle>
    <vehicle id="155" depart="98.57">
        <route edges="top1B1 B1B0 B0A0 A0left0"/>
    </vehicle>
    <vehicle id="156" depart="99.21">
        <route edges="bottom1B0 B0A0 A0bottom0"/>
    </vehicle>
    <vehicle id="157" depart="99.84">
        <route edges="top0A1 A1B1 B1top1"/>
    </vehicle>
    <vehicle id="158" depart="100.48">
        <route edges="left1A1 A1B1 B1B0 B0bottom1"/>
    </vehicle>
    <vehicle id="159" depart="101.11">
        <route edges="bottom1B0 B0B1 B1top1"/>
    </vehicle>
    <vehicle id="160" depart="101.75">
        <route edges="top0A1 A1B1 B1top1"/>
    </vehicle>
    <vehicle id="161" depart="102.38">
        <route edges="top0A1 A1B1 B1top1"/>
    </vehicle>
    <vehicle id="162" depart="103.02">
        <route edges="bottom0A0 A0B0 B0right0"/>
    </vehicle>
    <vehicle id="163" depart="103.66">
        <route edges="left0A0 A0B0 B0B1 B1top1"/>
    </vehicle>
    <vehicle id="164" depart="104.29">
        <route edges="top0A1 A1B1 B1right1"/>
    </vehicle>
    <vehicle id="165" depart="104.93">
        <route edges="top0A1 A1left1"/>
    </vehicle>
    <vehicle id="166" depart="105.56">
        <route edges="top0A1 A1A0 A0bottom0"/>
    </vehicle>
    <vehicle id="167" depart="106.20">
        <route edges="top0A1 A1B1 B1right1"/>
    </vehicle>
    <vehicle id="168" depart="106.84">
        <route edges="bottom1B0 B0B1 B1right1"/>
    </vehicle>
    <vehicle id="169" depart="107.47">
        <route edges="left1A1 A1B1 B1B0 B0A0 A0A1 A1left1"/>
    </vehicle>
    <vehicle id="170" depart="108.11">
        <route edges="top0A1 A1A0 A0left0"/>
    </vehicle>
    <vehicle id="171" depart="108.74">
        <route edges="bottom0A0 A0left0"/>
    </vehicle>
    <vehicle id="172" depart="109.38">
        <route edges="left0A0 A0B0 B0B1 B1right1"/>
    </vehicle>
    <vehicle id="173" depart="110.02">
        <route edges="top1B1 B1A1 A1left1"/>
    </vehicle>
    <vehicle id="174" depart="110.65">
        <route edges="right1B1 B1A1 A1top0"/>
    </vehicle>
    <vehicle id="175" depart="111.29">
        <route edges="top1B1 B1B0 B0bottom1"/>
    </vehicle>
    <vehicle id="176" depart="111.92">
        <route edges="top1B1 B1B0 B0A0 A0bottom0"/>
    </vehicle>
    <vehicle id="177" depart="112.56">
        <route edges="top1B1 B1B0 B0A0 A0left0"/>
    </vehicle>
    <vehicle id="178" depart="113.20">
        <route edges="top1B1 B1A1 A1left1"/>
    </vehicle>
    <vehicle id="179" depart="113.83">
        <route edges="bottom0A0 A0A1 A1top0"/>
    </vehicle>
    <vehicle id="180" depart="114.47">
        <route edges="right1B1 B1A1 A1left1"/>
    </vehicle>
    <vehicle id="181" depart="115.10">
        <route edges="right0B0 B0bottom1"/>
    </vehicle>
    <vehicle id="182" depart="115.74">
        <route edges="left1A1 A1B1 B1B0 B0bottom1"/>
    </vehicle>
    <vehicle id="183" depart="116.38">
        <route edges="bottom1B0 B0right0"/>
    </vehicle>
    <vehicle id="184" depart="117.01">
        <route edges="A0B0 B0B1 B1top1"/>
    </vehicle>
    <vehicle id="185" depart="117.65">
        <route edges="right0B0 B0A0 A0A1 A1B1 B1B0 B0right0"/>
    </vehicle>
    <vehicle id="186" depart="118.28">
        <route edges="right1B1 B1B0 B0right0"/>
    </vehicle>
    <vehicle id="187" depart="118.92">
        <route edges="left0A0 A0bottom0"/>
    </vehicle>
    <vehicle id="188" depart="119.55">
        <route edges="right1B1 B1A1 A1left1"/>
    </vehicle>
    <vehicle id="189" depart="120.19">
        <route edges="left0A0 A0B0 B0B1 B1right1"/>
    </vehicle>
    <vehicle id="190" depart="120.83">
        <route edges="right1B1 B1A1 A1left1"/>
    </vehicle>
    <vehicle id="191" depart="121.46">
        <route edges="left0A0 A0A1 A1top0"/>
    </vehicle>
    <vehicle id="192" depart="122.10">
        <route edges="left1A1 A1B1 B1B0 B0A0 A0A1 A1left1"/>
    </vehicle>
    <vehicle id="193" depart="122.73">
        <route edges="bottom0A0 A0A1 A1top0"/>
    </vehicle>
    <vehicle id="194" depart="123.37">
        <route edges="top1B1 B1B0 B0right0"/>
    </vehicle>
    <vehicle id="195" depart="124.01">
        <route edges="top1B1 B1B0 B0bottom1"/>
    </vehicle>
    <vehicle id="196" depart="124.64">
        <route edges="left0A0 A0B0 B0bottom1"/>
    </vehicle>
    <vehicle id="197" depart="125.28">
        <route edges="A0A1 A1left1"/>
    </vehicle>
    <vehicle id="198" depart="125.91">
        <route edges="left1A1 A1B1 B1B0 B0bottom1"/>
    </vehicle>
    <vehicle id="199" depart="126.55">
        <route edges="right1B1 B1A1 A1top0"/>
    </vehicle>
    <vehicle id="200" depart="127.19">
        <route edges="left1A1 A1A0 A0left0"/>
    </vehicle>
    <vehicle id="201" depart="127.82">
        <route edges="left1A1 A1B1 B1top1"/>
    </vehicle>
    <vehicle id="202" depart="128.46">
        <route edges="top0A1 A1A0 A0left0"/>
    </vehicle>
    <vehicle id="203" depart="129.09">
        <route edges="bottom0A0 A0B0 B0bottom1"/>
    </vehicle>
    <vehicle id="204" depart="129.73">
        <route edges="right1B1 B1A1 A1left1"/>
    </vehicle>
    <vehicle id="205" depart="130.37">
        <route edges="top0A1 A1A0"/>
    </vehicle>
    <vehicle id="206" depart="131.00">
        <route edges="right1B1 B1A1 A1A0 A0left0"/>
    </vehicle>
    <vehicle id="207" depart="131.64">
        <route edges="bottom1B0 B0A0 A0bottom0"/>
    </vehicle>
    <vehicle id="208" depart="132.27">
        <route edges="bottom1B0 B0B1 B1A1 A1top0"/>
    </vehicle>
    <vehicle id="209" depart="132.91">
        <route edges="top0A1 A1A0 A0bottom0"/>
    </vehicle>
    <vehicle id="210" depart="133.55">
        <route edges="left1A1 A1B1 B1B0 B0right0"/>
    </vehicle>
    <vehicle id="211" depart="134.18">
        <route edges="bottom1B0 B0right0"/>
    </vehicle>
    <vehicle id="212" depart="134.82">
        <route edges="left1A1 A1A0 A0left0"/>
    </vehicle>
    <vehicle id="213" depart="135.45">
        <route edges="right1B1 B1A1 A1A0 A0bottom0"/>
    </vehicle>
    <vehicle id="214" depart="136.09">
        <route edges="right1B1 B1B0 B0A0 A0A1 A1B1 B1right1"/>
    </vehicle>
    <vehicle id="215" depart="136.72">
        <route edges="bottom0A0 A0A1 A1top0"/>
    </vehicle>
    <vehicle id="216" depart="137.36">
        <route edges="bottom1B0 B0B1 B1top1"/>
    </vehicle>
    <vehicle id="217" depart="138.00">
        <route edges="right0B0 B0A0 A0bottom0"/>
    </vehicle>
    <vehicle id="218" depart="138.63">
        <route edges="bottom1B0 B0B1 B1right1"/>
    </vehicle>
    <vehicle id="219" depart="139.27">
        <route edges="left1A1 A1B1 B1right1"/>
    </vehicle>
    <vehicle id="220" depart="139.90">
        <route edges="right1B1 B1top1"/>
    </vehicle>
    <vehicle id="221" depart="140.54">
        <route edges="right0B0 B0B1 B1top1"/>
    </vehicle>
    <vehicle id="222" depart="141.18">
        <route edges="top1B1 B1B0 B0bottom1"/>
    </vehicle>
    <vehicle id="223" depart="141.81">
        <route edges="right1B1 B1B0 B0bottom1"/>
    </vehicle>
    <vehicle id="224" depart="142.45">
        <route edges="top0A1 A1A0 A0B0 B0bottom1"/>
    </vehicle>
    <vehicle id="225" depart="143.08">
        <route edges="top1B1 B1B0 B0right0"/>
    </vehicle>
    <vehicle id="226" depart="143.72">
        <route edges="left1A1 A1B1 B1B0 B0A0 A0A1 A1left1"/>
    </vehicle>
    <vehicle id="227" depart="144.36">
        <route edges="bottom1B0 B0right0"/>
    </vehicle>
    <vehicle id="228" depart="144.99">
        <route edges="top0A1 A1A0 A0B0 B0bottom1"/>
    </vehicle>
    <vehicle id="229" depart="145.63">
        <route edges="right0B0 B0A0 A0A1 A1left1"/>
    </vehicle>
    <vehicle id="230" depart="146.26">
        <route edges="bottom0A0 A0A1 A1left1"/>
    </vehicle>
    <vehicle id="231" depart="146.90">
        <route edges="left0A0 A0A1 A1left1"/>
    </vehicle>
    <vehicle id="232" depart="147.54">
        <route edges="right0B0 B0A0 A0left0"/>
    </vehicle>
    <vehicle id="233" depart="148.17">
        <route edges="bottom1B0 B0right0"/>
    </vehicle>
    <vehicle id="234" depart="148.81">
        <route edges="right1B1 B1A1 A1A0 A0bottom0"/>
    </vehicle>
    <vehicle id="235" depart="149.44">
        <route edges="left1A1 A1B1 B1B0 B0bottom1"/>
    </vehicle>
    <vehicle id="236" depart="150.08">
        <route edges="left1A1 A1A0 A0left0"/>
    </vehicle>
    <vehicle id="237" depart="150.72">
        <route edges="left1A1 A1B1 B1top1"/>
    </vehicle>
    <vehicle id="238" depart="151.35">
        <route edges="right0B0 B0A0 A0A1 A1B1 B1B0 B0right0"/>
    </vehicle>
    <vehicle id="239" depart="151.99">
        <route edges="top0A1 A1B1 B1right1"/>
    </vehicle>
    <vehicle id="240" depart="152.62">
        <route edges="left0A0 A0bottom0"/>
    </vehicle>
    <vehicle id="241" depart="153.26">
        <route edges="left0A0 A0B0 B0B1 B1right1"/>
    </vehicle>
    <vehicle id="242" depart="153.90">
        <route edges="top0A1 A1B1 B1top1"/>
    </vehicle>
    <vehicle id="243" depart="154.53">
        <route edges="left1A1 A1B1 B1B0 B0right0"/>
    </vehicle>
    <vehicle id="244" depart="155.17">
        <route edges="right0B0 B0bottom1"/>
    </vehicle>
    <vehicle id="245" depart="155.80">
        <route edges="bottom1B0 B0A0 A0left0"/>
    </vehicle>
    <vehicle id="246" depart="156.44">
        <route edges="left1A1 A1A0 A0bottom0"/>
    </vehicle>
    <vehicle id="247" depart="157.07">
        <route edges="left0A0 A0B0 B0right0"/>
    </vehicle>
    <vehicle id="248" depart="157.71">
        <route edges="left1A1 A1A0 A0left0"/>
    </vehicle>
    <vehicle id="249" depart="158.35">
        <route edges="left1A1 A1A0 A0left0"/>
    </vehicle>
    <vehicle id="250" depart="158.98">
        <route edges="right0B0 B0A0 A0bottom0"/>
    </vehicle>
    <vehicle id="251" depart="159.62">
        <route edges="left1A1 A1B1 B1B0 B0bottom1"/>
    </vehicle>
    <vehicle id="252" depart="160.25">
        <route edges="bottom0A0 A0B0 B0right0"/>
    </vehicle>
    <vehicle id="253" depart="160.89">
        <route edges="bottom1B0 B0B1 B1A1 A1top0"/>
    </vehicle>
    <vehicle id="254" depart="161.53">
        <route edges="bottom0A0 A0A1 A1top0"/>
    </vehicle>
    <vehicle id="255" depart="162.16">
        <route edges="bottom1B0 B0B1 B1A1 A1left1"/>
    </vehicle>
    <vehicle id="256" depart="162.80">
        <route edges="top0A1 A1B1 B1B0 B0A0 A0A1 A1top0"/>
    </vehicle>
    <vehicle id="257" depart="163.43">
        <route edges="right1B1 B1B0 B0A0 A0A1 A1B1 B1right1"/>
    </vehicle>
    <vehicle id="258" depart="164.07">
        <route edges="bottom1B0 B0A0 A0bottom0"/>
    </vehicle>
    <vehicle id="259" depart="164.71">
        <route edges="bottom0A0 A0B0 B0bottom1"/>
    </vehicle>
    <vehicle id="260" depart="165.34">
        <route edges="top1B1 B1A1 A1left1"/>
    </vehicle>
    <vehicle id="261" depart="165.98">
        <route edges="right1B1 B1B0 B0A0 A0A1 A1B1 B1right1"/>
    </vehicle>
    <vehicle id="262" depart="166.61">
        <route edges="right1B1 B1B0 B0A0 A0A1 A1B1 B1right1"/>
    </vehicle>
    <vehicle id="263" depart="167.25">
        <route edges="top1B1 B1B0 B0A0 A0left0"/>
    </vehicle>
    <vehicle id="264" depart="167.89">
        <route edges="bottom0A0 A0left0"/>
    </vehicle>
    <vehicle id="265" depart="168.52">
        <route edges="bottom0A0 A0B0 B0right0"/>
    </vehicle>
    <vehicle id="266" depart="169.16">
        <route edges="right0B0 B0A0 A0left0"/>
    </vehicle>
    <vehicle id="267" depart="169.79">
        <route edges="right1B1 B1B0 B0A0 A0A1 A1B1 B1right1"/>
    </vehicle>
    <vehicle id="268" depart="170.43">
        <route edges="bottom1B0 B0A0 A0A1 A1B1 B1B0 B0bottom1"/>
    </vehicle>
    <vehicle id="269" depart="171.07">
        <route edges="right1B1 B1A1 A1A0 A0bottom0"/>
    </vehicle>
    <vehicle id="270" depart="171.70">
        <route edges="top0A1 A1B1 B1top1"/>
    </vehicle>
    <vehicle id="271" depart="172.34">
        <route edges="bottom0A0 A0A1 A1B1 B1B0 B0A0 A0bottom0"/>
    </vehicle>
    <vehicle id="272" depart="172.97">
        <route edges="left0A0 A0B0 B0right0"/>
    </vehicle>
    <vehicle id="273" depart="173.61">
        <route edges="top1B1 B1A1 A1top0"/>
    </vehicle>
    <vehicle id="274" depart="174.24">
        <route edges="right1B1 B1A1 A1A0 A0bottom0"/>
    </vehicle>
    <vehicle id="275" depart="174.88">
        <route edges="right1B1 B1B0 B0right0"/>
    </vehicle>
    <vehicle id="276" depart="175.52">
        <route edges="bottom0A0 A0A1 A1B1 B1right1"/>
    </vehicle>
    <vehicle id="277" depart="176.15">
        <route edges="top0A1 A1A0 A0B0 B0bottom1"/>
    </vehicle>
    <vehicle id="278" depart="176.79">