<additional xmlns:xsi="http://www.w3.org/2001/XMLSchema-instance" xsi:noNamespaceSchemaLocation="http://sumo.dlr.de/xsd/additional_file.xsd">
    <laneAreaDetector file="e2output.xml" freq="1" friendlyPos="x" id="e2det_A0A1_0" lane="A0A1_0" length="50" pos="222.70000000000002"/>
    <laneAreaDetector file="e2output.xml" freq="1" friendlyPos="x" id="e2det_A0A1_1" lane="A0A1_1" length="50" pos="222.70000000000002"/>
    <laneAreaDetector file="e2output.xml" freq="1" friendlyPos="x" id="e2det_A0A1_2" lane="A0A1_2" length="50" pos="222.70000000000002"/>
    <laneAreaDetector file="e2output.xml" freq="1" friendlyPos="x" id="e2det_B1A1_0" lane="B1A1_0" length="50" pos="222.70000000000002"/>
    <laneAreaDetector file="e2output.xml" freq="1" friendlyPos="x" id="e2det_B1A1_1" lane="B1A1_1" length="50" pos="222.70000000000002"/>
    <laneAreaDetector file="e2output.xml" freq="1" friendlyPos="x" id="e2det_B1A1_2" lane="B1A1_2" length="50" pos="222.70000000000002"/>
    <laneAreaDetector file="e2output.xml" freq="1" friendlyPos="x" id="e2det_left1A1_0" lane="left1A1_0" length="50" pos="236.29999999999998"/>
    <laneAreaDetector file="e2output.xml" freq="1" friendlyPos="x" id="e2det_left1A1_1" lane="left1A1_1" length="50" pos="236.29999999999998"/>
    <laneAreaDetector file="e2output.xml" freq="1" friendlyPos="x" id="e2det_left1A1_2" lane="left1A1_2" length="50" pos="236.29999999999998"/>
    <laneAreaDetector file="e2output.xml" freq="1" friendlyPos="x" id="e2det_top0A1_0" lane="top0A1_0" length="50" pos="236.29999999999998"/>
    <laneAreaDetector file="e2output.xml" freq="1" friendlyPos="x" id="e2det_top0A1_1" lane="top0A1_1" length="50" pos="236.29999999999998"/>
    <laneAreaDetector file="e2output.xml" freq="1" friendlyPos="x" id="e2det_top0A1_2" lane="top0A1_2" length="50" pos="236.29999999999998"/>
    <laneAreaDetector file="e2output.xml" freq="1" friendlyPos="x" id="e2det_A0B0_0" lane="A0B0_0" length="50" pos="222.70000000000002"/>
    <laneAreaDetector file="e2output.xml" freq="1" friendlyPos="x" id="e2det_A0B0_1" lane="A0B0_1" length="50" pos="222.70000000000002"/>
    <laneAreaDetector file="e2output.xml" freq="1" friendlyPos="x" id="e2det_A0B0_2" lane="A0B0_2" length="50" pos="222.70000000000002"/>
    <laneAreaDetector file="e2output.xml" freq="1" friendlyPos="x" id="e2det_B1B0_0" lane="B1B0_0" length="50" pos="222.70000000000002"/>
    <laneAreaDetector file="e2output.xml" freq="1" friendlyPos="x" id="e2det_B1B0_1" lane="B1B0_1" length="50" pos="222.70000000000002"/>
    <laneAreaDetector file="e2output.xml" freq="1" friendlyPos="x" id="e2det_B1B0_2" lane="B1B0_2" length="50" pos="222.70000000000002"/>
    <laneAreaDetector file="e2output.xml" freq="1" friendlyPos="x" id="e2det_bottom1B0_0" lane="bottom1B0_0" length="50" pos="236.29999999999998"/>
    <laneAreaDetector file="e2output.xml" freq="1" friendlyPos="x" id="e2det_bottom1B0_1" lane="bottom1B0_1" length="50" pos="236.29999999999998"/>
    <laneAreaDetector file="e2output.xml" freq="1" friendlyPos="x" id="e2det_bottom1B0_2" lane="bottom1B0_2" length="50" pos="236.29999999999998"/>
    <laneAreaDetector file="e2output.xml" freq="1" friendlyPos="x" id="e2det_right0B0_0" lane="right0B0_0" length="50" pos="236.29999999999998"/>
    <laneAreaDetector file="e2output.xml" freq="1" friendlyPos="x" id="e2det_right0B0_1" lane="right0B0_1" length="50" pos="236.29999999999998"/>
    <laneAreaDetector file="e2output.xml" freq="1" friendlyPos="x" id="e2det_right0B0_2" lane="right0B0_2" length="50" pos="236.29999999999998"/>
    <laneAreaDetector file="e2output.xml" freq="1" friendlyPos="x" id="e2det_A1A0_0" lane="A1A0_0" length="50" pos="222.70000000000002"/>
    <laneAreaDetector file="e2output.xml" freq="1" friendlyPos="x" id="e2det_A1A0_1" lane="A1A0_1" length="50" pos="222.70000000000002"/>
    <laneAreaDetector file="e2output.xml" freq="1" friendlyPos="x" id="e2det_A1A0_2" lane="A1A0_2" length="50" pos="222.70000000000002"/>
    <laneAreaDetector file="e2output.xml" freq="1" friendlyPos="x" id="e2det_B0A0_0" lane="B0A0_0" length="50" pos="222.70000000000002"/>
    <laneAreaDetector file="e2output.xml" freq="1" friendlyPos="x" id="e2det_B0A0_1" lane="B0A0_1" length="50" pos="222.70000000000002"/>
    <laneAreaDetector file="e2output.xml" freq="1" friendlyPos="x" id="e2det_B0A0_2" lane="B0A0_2" length="50" pos="222.70000000000002"/>
    <laneAreaDetector file="e2output.xml" freq="1" friendlyPos="x" id="e2det_bottom0A0_0" lane="bottom0A0_0" length="50" pos="236.29999999999998"/>
    <laneAreaDetector file="e2output.xml" freq="1" friendlyPos="x" id="e2det_bottom0A0_1" lane="bottom0A0_1" length="50" pos="236.29999999999998"/>
    <laneAreaDetector file="e2output.xml" freq="1" friendlyPos="x" id="e2det_bottom0A0_2" lane="bottom0A0_2" length="50" pos="236.29999999999998"/>
    <laneAreaDetector file="e2output.xml" freq="1" friendlyPos="x" id="e2det_left0A0_0" lane="left0A0_0" length="50" pos="236.29999999999998"/>
    <laneAreaDetector file="e2output.xml" freq="1" friendlyPos="x" id="e2det_left0A0_1" lane="left0A0_1" length="50" pos="236.29999999999998"/>
    <laneAreaDetector file="e2output.xml" freq="1" friendlyPos="x" id="e2det_left0A0_2" lane="left0A0_2" length="50" pos="236.29999999999998"/>
    <laneAreaDetector file="e2output.xml" freq="1" friendlyPos="x" id="e2det_A1B1_0" lane="A1B1_0" length="50" pos="222.70000000000002"/>
    <laneAreaDetector file="e2output.xml" freq="1" friendlyPos="x" id="e2det_A1B1_1" lane="A1B1_1" length="50" pos="222.70000000000002"/>
    <laneAreaDetector file="e2output.xml" freq="1" friendlyPos="x" id="e2det_A1B1_2" lane="A1B1_2" length="50" pos="222.70000000000002"/>
    <laneAreaDetector file="e2output.xml" freq="1" friendlyPos="x" id="e2det_B0B1_0" lane="B0B1_0" length="50" pos="222.70000000000002"/>
    <laneAreaDetector file="e2output.xml" freq="1" friendlyPos="x" id="e2det_B0B1_1" lane="B0B1_1" length="50" pos="222.70000000000002"/>
    <laneAreaDetector file="e2output.xml" freq="1" friendlyPos="x" id="e2det_B0B1_2" lane="B0B1_2" length="50" pos="222.70000000000002"/>
    <laneAreaDetector file="e2output.xml" freq="1" friendlyPos="x" id="e2det_right1B1_0" lane="right1B1_0" length="50" pos="236.29999999999998"/>
    <laneAreaDetector file="e2output.xml" freq="1" friendlyPos="x" id="e2det_right1B1_1" lane="right1B1_1" length="50" pos="236.29999999999998"/>
    <laneAreaDetector file="e2output.xml" freq="1" friendlyPos="x" id="e2det_right1B1_2" lane="right1B1_2" length="50" pos="236.29999999999998"/>
    <laneAreaDetector file="e2output.xml" freq="1" friendlyPos="x" id="e2det_top1B1_0" lane="top1B1_0" length="50" pos="236.29999999999998"/>
    <laneAreaDetector file="e2output.xml" freq="1" friendlyPos="x" id="e2det_top1B1_1" lane="top1B1_1" length="50" pos="236.29999999999998"/>
    <laneAreaDetector file="e2output.xml" freq="1" friendlyPos="x" id="e2det_top1B1_2" lane="top1B1_2" length="50" pos="236.29999999999998"/>
</additional>
