<?xml version="1.0" encoding="UTF-8"?>

<!-- generated on 2025-03-14 18:48:01.334398 by randomTrips.py v1_22_0+0449-9311ec3459f
<configuration>
    <net-file value="random_grid_10.net.xml"/>
    <output-trip-file value="random_grid_10_heavy.trips.xml"/>
    <fringe-factor value="100"/>
    <validate value="True"/>
    <period value="3.0"/>
    <random-depart value="True"/>
    <binomial value="10"/>
</configuration>
-->

<!-- generated on 2025-03-14 18:48:01 by Eclipse SUMO duarouter Version v1_22_0+0449-9311ec3459f
<duarouterConfiguration xmlns:xsi="http://www.w3.org/2001/XMLSchema-instance" xsi:noNamespaceSchemaLocation="http://sumo.dlr.de/xsd/duarouterConfiguration.xsd">

    <input>
        <net-file value="random_grid_10.net.xml"/>
        <route-files value="random_grid_10_heavy.trips.xml"/>
    </input>

    <output>
        <output-file value="routes.rou.xml"/>
        <alternatives-output value="NUL"/>
    </output>

    <time>
        <begin value="0.0"/>
        <end value="3600.0"/>
    </time>

    <report>
        <no-warnings value="true"/>
        <ignore-errors value="true"/>
        <no-step-log value="true"/>
    </report>

</duarouterConfiguration>
-->

<routes xmlns:xsi="http://www.w3.org/2001/XMLSchema-instance" xsi:noNamespaceSchemaLocation="http://sumo.dlr.de/xsd/routes_file.xsd">
    <vehicle id="0" depart="0.00">
        <route edges="-1568 -1089 -937 -533"/>
    </vehicle>
    <vehicle id="3" depart="1.00">
        <route edges="533 939"/>
    </vehicle>
    <vehicle id="4" depart="5.00">
        <route edges="-1568 -1089 -937 -533"/>
    </vehicle>
    <vehicle id="5" depart="9.00">
        <route edges="533 939"/>
    </vehicle>
    <vehicle id="6" depart="11.00">
        <route edges="-1568 -1089 -937 -533"/>
    </vehicle>
    <vehicle id="8" depart="27.00">
        <route edges="533 937 1089 1568"/>
    </vehicle>
    <vehicle id="9" depart="27.00">
        <route edges="-1568 -1089 -937 939"/>
    </vehicle>
    <vehicle id="11" depart="32.00">
        <route edges="-1568 -1089 -937 -533"/>
    </vehicle>
    <vehicle id="12" depart="34.00">
        <route edges="533 937 1089 1568"/>
    </vehicle>
    <vehicle id="15" depart="39.00">
        <route edges="533 939"/>
    </vehicle>
    <vehicle id="18" depart="46.00">
        <route edges="-939 937 1089 1568"/>
    </vehicle>
    <vehicle id="19" depart="46.00">
        <route edges="-939 -533"/>
    </vehicle>
    <vehicle id="21" depart="48.00">
        <route edges="-1568 -1089 -937 -533"/>
    </vehicle>
    <vehicle id="22" depart="49.00">
        <route edges="-1568 -1089 -937 939"/>
    </vehicle>
    <vehicle id="25" depart="58.00">
        <route edges="-939 -533"/>
    </vehicle>
    <vehicle id="26" depart="63.00">
        <route edges="-939 937 1089 1568"/>
    </vehicle>
    <vehicle id="27" depart="82.00">
        <route edges="533 939"/>
    </vehicle>
    <vehicle id="28" depart="90.00">
        <route edges="-939 937 1089 1568"/>
    </vehicle>
    <vehicle id="29" depart="90.00">
        <route edges="533 937 1089 1568"/>
    </vehicle>
    <vehicle id="30" depart="93.00">
        <route edges="-939 937 1089 1568"/>
    </vehicle>
    <vehicle id="33" depart="96.00">
        <route edges="-1568 -1089 -937 939"/>
    </vehicle>
    <vehicle id="34" depart="105.00">
        <route edges="533 939"/>
    </vehicle>
    <vehicle id="35" depart="106.00">
        <route edges="533 937 1089 1568"/>
    </vehicle>
    <vehicle id="37" depart="109.00">
        <route edges="-1568 -1089 -937 -533"/>
    </vehicle>
    <vehicle id="39" depart="110.00">
        <route edges="533 939"/>
    </vehicle>
    <vehicle id="40" depart="111.00">
        <route edges="-1568 -1089 -937 939"/>
    </vehicle>
    <vehicle id="42" depart="129.00">
        <route edges="533 939"/>
    </vehicle>
    <vehicle id="43" depart="130.00">
        <route edges="-1568 -1089 -937 -533"/>
    </vehicle>
    <vehicle id="44" depart="132.00">
        <route edges="-939 -533"/>
    </vehicle>
    <vehicle id="45" depart="133.00">
        <route edges="533 937 1089 1568"/>
    </vehicle>
    <vehicle id="46" depart="146.00">
        <route edges="-939 937 1089 1568"/>
    </vehicle>
    <vehicle id="48" depart="156.00">
        <route edges="533 937 1089 1568"/>
    </vehicle>
    <vehicle id="51" depart="163.00">
        <route edges="-1568 -1089 -937 -533"/>
    </vehicle>
    <vehicle id="53" depart="173.00">
        <route edges="-939 -533"/>
    </vehicle>
    <vehicle id="56" depart="184.00">
        <route edges="-1568 -1089 -937 -533"/>
    </vehicle>
    <vehicle id="57" depart="186.00">
        <route edges="-1568 -1089 -937 -533"/>
    </vehicle>
    <vehicle id="58" depart="193.00">
        <route edges="533 939"/>
    </vehicle>
    <vehicle id="59" depart="199.00">
        <route edges="-939 937 1089 1568"/>
    </vehicle>
    <vehicle id="60" depart="200.00">
        <route edges="-939 -533"/>
    </vehicle>
    <vehicle id="61" depart="200.00">
        <route edges="533 939"/>
    </vehicle>
    <vehicle id="64" depart="207.00">
        <route edges="-1568 -1089 -937 939"/>
    </vehicle>
    <vehicle id="66" depart="209.00">
        <route edges="-939 -533"/>
    </vehicle>
    <vehicle id="69" depart="223.00">
        <route edges="-939 -533"/>
    </vehicle>
    <vehicle id="70" depart="228.00">
        <route edges="-1568 -1089 -937 939"/>
    </vehicle>
    <vehicle id="72" depart="237.00">
        <route edges="533 939"/>
    </vehicle>
    <vehicle id="74" depart="241.00">
        <route edges="-939 -533"/>
    </vehicle>
    <vehicle id="75" depart="241.00">
        <route edges="533 939"/>
    </vehicle>
    <vehicle id="76" depart="243.00">
        <route edges="-939 937 1089 1568"/>
    </vehicle>
    <vehicle id="77" depart="248.00">
        <route edges="-1568 -1089 -937 -533"/>
    </vehicle>
    <vehicle id="80" depart="258.00">
        <route edges="-939 -533"/>
    </vehicle>
    <vehicle id="82" depart="265.00">
        <route edges="-939 937 1089 1568"/>
    </vehicle>
    <vehicle id="83" depart="265.00">
        <route edges="533 939"/>
    </vehicle>
    <vehicle id="84" depart="266.00">
        <route edges="-1568 -1089 -937 939"/>
    </vehicle>
    <vehicle id="86" depart="273.00">
        <route edges="533 939"/>
    </vehicle>
    <vehicle id="92" depart="285.00">
        <route edges="-1568 -1089 -937 -533"/>
    </vehicle>
    <vehicle id="94" depart="298.00">
        <route edges="-1568 -1089 -937 939"/>
    </vehicle>
    <vehicle id="95" depart="299.00">
        <route edges="-939 937 1089 1568"/>
    </vehicle>
    <vehicle id="96" depart="301.00">
        <route edges="533 939"/>
    </vehicle>
    <vehicle id="97" depart="301.00">
        <route edges="533 937 1089 1568"/>
    </vehicle>
    <vehicle id="98" depart="301.00">
        <route edges="-1568 -1089 -937 939"/>
    </vehicle>
    <vehicle id="99" depart="311.00">
        <route edges="-1568 -1089 -937 939"/>
    </vehicle>
    <vehicle id="100" depart="312.00">
        <route edges="-1568 -1089 -937 939"/>
    </vehicle>
    <vehicle id="101" depart="317.00">
        <route edges="533 937 1089 1568"/>
    </vehicle>
    <vehicle id="102" depart="320.00">
        <route edges="533 939"/>
    </vehicle>
    <vehicle id="103" depart="325.00">
        <route edges="533 939"/>
    </vehicle>
    <vehicle id="108" depart="349.00">
        <route edges="533 937 1089 1568"/>
    </vehicle>
    <vehicle id="110" depart="354.00">
        <route edges="533 937 1089 1568"/>
    </vehicle>
    <vehicle id="111" depart="357.00">
        <route edges="-939 937 1089 1568"/>
    </vehicle>
    <vehicle id="112" depart="362.00">
        <route edges="-1568 -1089 -937 -533"/>
    </vehicle>
    <vehicle id="113" depart="364.00">
        <route edges="-939 -533"/>
    </vehicle>
    <vehicle id="115" depart="373.00">
        <route edges="533 937 1089 1568"/>
    </vehicle>
    <vehicle id="117" depart="383.00">
        <route edges="-1568 -1089 -937 -533"/>
    </vehicle>
    <vehicle id="118" depart="386.00">
        <route edges="-1568 -1089 -937 939"/>
    </vehicle>
    <vehicle id="119" depart="390.00">
        <route edges="-1568 -1089 -937 -533"/>
    </vehicle>
    <vehicle id="122" depart="401.00">
        <route edges="-1568 -1089 -937 939"/>
    </vehicle>
    <vehicle id="123" depart="405.00">
        <route edges="533 937 1089 1568"/>
    </vehicle>
    <vehicle id="126" depart="409.00">
        <route edges="533 939"/>
    </vehicle>
    <vehicle id="127" depart="410.00">
        <route edges="533 939"/>
    </vehicle>
    <vehicle id="128" depart="410.00">
        <route edges="-939 -533"/>
    </vehicle>
    <vehicle id="129" depart="410.00">
        <route edges="-939 937 1089 1568"/>
    </vehicle>
    <vehicle id="131" depart="418.00">
        <route edges="-1568 -1089 -937 939"/>
    </vehicle>
    <vehicle id="132" depart="423.00">
        <route edges="-939 937 1089 1568"/>
    </vehicle>
    <vehicle id="133" depart="423.00">
        <route edges="533 939"/>
    </vehicle>
    <vehicle id="134" depart="433.00">
        <route edges="533 939"/>
    </vehicle>
    <vehicle id="135" depart="437.00">
        <route edges="533 937 1089 1568"/>
    </vehicle>
    <vehicle id="136" depart="441.00">
        <route edges="-1568 -1089 -937 939"/>
    </vehicle>
    <vehicle id="139" depart="444.00">
        <route edges="-939 937 1089 1568"/>
    </vehicle>
    <vehicle id="140" depart="445.00">
        <route edges="-939 -533"/>
    </vehicle>
    <vehicle id="141" depart="445.00">
        <route edges="533 937 1089 1568"/>
    </vehicle>
    <vehicle id="143" depart="448.00">
        <route edges="-939 -533"/>
    </vehicle>
    <vehicle id="147" depart="472.00">
        <route edges="-1568 -1089 -937 -533"/>
    </vehicle>
    <vehicle id="148" depart="473.00">
        <route edges="533 937 1089 1568"/>
    </vehicle>
    <vehicle id="149" depart="473.00">
        <route edges="-1568 -1089 -937 -533"/>
    </vehicle>
    <vehicle id="150" depart="476.00">
        <route edges="533 937 1089 1568"/>
    </vehicle>
    <vehicle id="151" depart="476.00">
        <route edges="-939 937 1089 1568"/>
    </vehicle>
    <vehicle id="152" depart="478.00">
        <route edges="-939 937 1089 1568"/>
    </vehicle>
    <vehicle id="153" depart="479.00">
        <route edges="533 939"/>
    </vehicle>
    <vehicle id="154" depart="481.00">
        <route edges="-939 937 1089 1568"/>
    </vehicle>
    <vehicle id="155" depart="486.00">
        <route edges="-939 937 1089 1568"/>
    </vehicle>
    <vehicle id="156" depart="491.00">
        <route edges="-1568 -1089 -937 -533"/>
    </vehicle>
    <vehicle id="157" depart="493.00">
        <route edges="533 937 1089 1568"/>
    </vehicle>
    <vehicle id="158" depart="496.00">
        <route edges="533 937 1089 1568"/>
    </vehicle>
    <vehicle id="159" depart="503.00">
        <route edges="-1568 -1089 -937 -533"/>
    </vehicle>
    <vehicle id="160" depart="507.00">
        <route edges="533 937 1089 1568"/>
    </vehicle>
    <vehicle id="161" depart="510.00">
        <route edges="-1568 -1089 -937 -533"/>
    </vehicle>
    <vehicle id="162" depart="510.00">
        <route edges="-1568 -1089 -937 939"/>
    </vehicle>
    <vehicle id="163" depart="517.00">
        <route edges="533 939"/>
    </vehicle>
    <vehicle id="164" depart="527.00">
        <route edges="-939 -533"/>
    </vehicle>
    <vehicle id="165" depart="529.00">
        <route edges="-1568 -1089 -937 -533"/>
    </vehicle>
    <vehicle id="167" depart="539.00">
        <route edges="533 939"/>
    </vehicle>
    <vehicle id="169" depart="541.00">
        <route edges="-939 -533"/>
    </vehicle>
    <vehicle id="170" depart="553.00">
        <route edges="533 939"/>
    </vehicle>
    <vehicle id="171" depart="556.00">
        <route edges="-939 937 1089 1568"/>
    </vehicle>
    <vehicle id="172" depart="562.00">
        <route edges="-1089 -937 -533"/>
    </vehicle>
    <vehicle id="173" depart="567.00">
        <route edges="-939 937 1089 1568"/>
    </vehicle>
    <vehicle id="175" depart="574.00">
        <route edges="-1568 -1089 -937 -533"/>
    </vehicle>
    <vehicle id="178" depart="587.00">
        <route edges="-1568 -1089 -937 939"/>
    </vehicle>
    <vehicle id="179" depart="587.00">
        <route edges="533 937 1089 1568"/>
    </vehicle>
    <vehicle id="181" depart="594.00">
        <route edges="533 939"/>
    </vehicle>
    <vehicle id="183" depart="603.00">
        <route edges="533 937 1089 1568"/>
    </vehicle>
    <vehicle id="185" depart="615.00">
        <route edges="-1568 -1089 -937 -533"/>
    </vehicle>
    <vehicle id="186" depart="624.00">
        <route edges="533 939"/>
    </vehicle>
    <vehicle id="187" depart="626.00">
        <route edges="533 937 1089 1568"/>
    </vehicle>
    <vehicle id="188" depart="635.00">
        <route edges="-1568 -1089 -937 -533"/>
    </vehicle>
    <vehicle id="189" depart="637.00">
        <route edges="-1568 -1089 -937 -533"/>
    </vehicle>
    <vehicle id="190" depart="638.00">
        <route edges="-1568 -1089 -937 -533"/>
    </vehicle>
    <vehicle id="192" depart="642.00">
        <route edges="-1568 -1089 -937 -533"/>
    </vehicle>
    <vehicle id="193" depart="645.00">
        <route edges="533 937 1089 1568"/>
    </vehicle>
    <vehicle id="195" depart="652.00">
        <route edges="-1568 -1089 -937 -533"/>
    </vehicle>
    <vehicle id="197" depart="657.00">
        <route edges="533 937 1089 1568"/>
    </vehicle>
    <vehicle id="199" depart="671.00">
        <route edges="-939 937 1089 1568"/>
    </vehicle>
    <vehicle id="202" depart="677.00">
        <route edges="533 937 1089 1568"/>
    </vehicle>
    <vehicle id="203" depart="680.00">
        <route edges="533 937 1089 1568"/>
    </vehicle>
    <vehicle id="205" depart="681.00">
        <route edges="533 939"/>
    </vehicle>
    <vehicle id="207" depart="682.00">
        <route edges="-1568 -1089 -937 939"/>
    </vehicle>
    <vehicle id="208" depart="688.00">
        <route edges="-1568 -1089 -937 -533"/>
    </vehicle>
    <vehicle id="209" depart="688.00">
        <route edges="533 939"/>
    </vehicle>
    <vehicle id="212" depart="699.00">
        <route edges="-1568 -1089 -937 -533"/>
    </vehicle>
    <vehicle id="213" depart="700.00">
        <route edges="-1568 -1089 -937 -533"/>
    </vehicle>
    <vehicle id="214" depart="701.00">
        <route edges="-1568 -1089 -937 -533"/>
    </vehicle>
    <vehicle id="215" depart="701.00">
        <route edges="533 939"/>
    </vehicle>
    <vehicle id="216" depart="701.00">
        <route edges="533 937 1089 1568"/>
    </vehicle>
    <vehicle id="217" depart="712.00">
        <route edges="-1568 -1089 -937 939"/>
    </vehicle>
    <vehicle id="218" depart="715.00">
        <route edges="533 939"/>
    </vehicle>
    <vehicle id="219" depart="716.00">
        <route edges="533 939"/>
    </vehicle>
    <vehicle id="220" depart="718.00">
        <route edges="533 937 1089 1568"/>
    </vehicle>
    <vehicle id="221" depart="721.00">
        <route edges="-1568 -1089 -937 -533"/>
    </vehicle>
    <vehicle id="222" depart="726.00">
        <route edges="-1568 -1089 -937 939"/>
    </vehicle>
    <vehicle id="223" depart="728.00">
        <route edges="-1568 -1089 -937 -533"/>
    </vehicle>
    <vehicle id="224" depart="730.00">
        <route edges="533 939"/>
    </vehicle>
    <vehicle id="229" depart="749.00">
        <route edges="533 937 1089 1568"/>
    </vehicle>
    <vehicle id="230" depart="752.00">
        <route edges="-1568 -1089 -937 939"/>
    </vehicle>
    <vehicle id="233" depart="759.00">
        <route edges="-939 -533"/>
    </vehicle>
    <vehicle id="235" depart="774.00">
        <route edges="533 937 1089 1568"/>
    </vehicle>
    <vehicle id="236" depart="778.00">
        <route edges="-939 937 1089 1568"/>
    </vehicle>
    <vehicle id="237" depart="780.00">
        <route edges="-939 937 1089 1568"/>
    </vehicle>
    <vehicle id="238" depart="783.00">
        <route edges="-1568 -1089 -937 939"/>
    </vehicle>
    <vehicle id="239" depart="787.00">
        <route edges="-939 -533"/>
    </vehicle>
    <vehicle id="241" depart="791.00">
        <route edges="-939 -533"/>
    </vehicle>
    <vehicle id="246" depart="821.00">
        <route edges="-939 937 1089 1568"/>
    </vehicle>
    <vehicle id="247" depart="825.00">
        <route edges="-1568 -1089 -937 -533"/>
    </vehicle>
    <vehicle id="248" depart="827.00">
        <route edges="533 939"/>
    </vehicle>
    <vehicle id="249" depart="827.00">
        <route edges="533 939"/>
    </vehicle>
    <vehicle id="250" depart="830.00">
        <route edges="-939 -533"/>
    </vehicle>
    <vehicle id="253" depart="839.00">
        <route edges="533 937 1089 1568"/>
    </vehicle>
    <vehicle id="254" depart="840.00">
        <route edges="-939 -533"/>
    </vehicle>
    <vehicle id="255" depart="841.00">
        <route edges="533 937 1089 1568"/>
    </vehicle>
    <vehicle id="256" depart="841.00">
        <route edges="533 939"/>
    </vehicle>
    <vehicle id="258" depart="845.00">
        <route edges="-1568 -1089 -937 939"/>
    </vehicle>
    <vehicle id="259" depart="846.00">
        <route edges="-939 -533"/>
    </vehicle>
    <vehicle id="261" depart="858.00">
        <route edges="-939 937 1089 1568"/>
    </vehicle>
    <vehicle id="262" depart="862.00">
        <route edges="533 937 1089 1568"/>
    </vehicle>
    <vehicle id="266" depart="870.00">
        <route edges="-939 -533"/>
    </vehicle>
    <vehicle id="268" depart="875.00">
        <route edges="533 939"/>
    </vehicle>
    <vehicle id="269" depart="878.00">
        <route edges="-1568 -1089 -937 939"/>
    </vehicle>
    <vehicle id="271" depart="879.00">
        <route edges="533 939"/>
    </vehicle>
    <vehicle id="273" depart="885.00">
        <route edges="-1568 -1089 -937 -533"/>
    </vehicle>
    <vehicle id="275" depart="892.00">
        <route edges="-1568 -1089 -937 -533"/>
    </vehicle>
    <vehicle id="276" depart="897.00">
        <route edges="-1568 -1089 -937 939"/>
    </vehicle>
    <vehicle id="277" depart="900.00">
        <route edges="-939 937 1089 1568"/>
    </vehicle>
    <vehicle id="280" depart="909.00">
        <route edges="533 939"/>
    </vehicle>
    <vehicle id="281" depart="914.00">
        <route edges="-1568 -1089 -937 -533"/>
    </vehicle>
    <vehicle id="284" depart="920.00">
        <route edges="533 939"/>
    </vehicle>
    <vehicle id="286" depart="923.00">
        <route edges="-939 -533"/>
    </vehicle>
    <vehicle id="287" depart="927.00">
        <route edges="-939 937 1089 1568"/>
    </vehicle>
    <vehicle id="289" depart="940.00">
        <route edges="-939 -533"/>
    </vehicle>
    <vehicle id="290" depart="944.00">
        <route edges="-1568 -1089 -937 939"/>
    </vehicle>
    <vehicle id="291" depart="946.00">
        <route edges="533 939"/>
    </vehicle>
    <vehicle id="293" depart="956.00">
        <route edges="533 939"/>
    </vehicle>
    <vehicle id="295" depart="965.00">
        <route edges="533 937 1089 1568"/>
    </vehicle>
    <vehicle id="296" depart="970.00">
        <route edges="-1568 -1089 -937 -533"/>
    </vehicle>
    <vehicle id="297" depart="979.00">
        <route edges="533 939"/>
    </vehicle>
    <vehicle id="301" depart="991.00">
        <route edges="533 939"/>
    </vehicle>
    <vehicle id="303" depart="995.00">
        <route edges="533 937 1089 1568"/>
    </vehicle>
    <vehicle id="304" depart="996.00">
        <route edges="-1568 -1089 -937 -533"/>
    </vehicle>
    <vehicle id="305" depart="997.00">
        <route edges="-939 937 1089 1568"/>
    </vehicle>
    <vehicle id="306" depart="1000.00">
        <route edges="533 939"/>
    </vehicle>
    <vehicle id="307" depart="1005.00">
        <route edges="-939 -533"/>
    </vehicle>
    <vehicle id="308" depart="1013.00">
        <route edges="-939 937 1089 1568"/>
    </vehicle>
    <vehicle id="309" depart="1014.00">
        <route edges="-939 937 1089 1568"/>
    </vehicle>
    <vehicle id="310" depart="1015.00">
        <route edges="-1568 -1089 -937 -533"/>
    </vehicle>
    <vehicle id="312" depart="1018.00">
        <route edges="533 939"/>
    </vehicle>
    <vehicle id="316" depart="1029.00">
        <route edges="533 937 1089 1568"/>
    </vehicle>
    <vehicle id="318" depart="1032.00">
        <route edges="-1568 -1089 -937 939"/>
    </vehicle>
    <vehicle id="322" depart="1049.00">
        <route edges="-939 -533"/>
    </vehicle>
    <vehicle id="323" depart="1050.00">
        <route edges="-1568 -1089 -937 -533"/>
    </vehicle>
    <vehicle id="324" depart="1051.00">
        <route edges="-939 937 1089 1568"/>
    </vehicle>
    <vehicle id="325" depart="1051.00">
        <route edges="533 939"/>
    </vehicle>
    <vehicle id="326" depart="1052.00">
        <route edges="-939 -533"/>
    </vehicle>
    <vehicle id="327" depart="1053.00">
        <route edges="533 937 1089 1568"/>
    </vehicle>
    <vehicle id="328" depart="1062.00">
        <route edges="-1568 -1089 -937 939"/>
    </vehicle>
    <vehicle id="330" depart="1068.00">
        <route edges="-1568 -1089 -937 -533"/>
    </vehicle>
    <vehicle id="331" depart="1070.00">
        <route edges="533 937 1089 1568"/>
    </vehicle>
    <vehicle id="332" depart="1078.00">
        <route edges="533 937 1089 1568"/>
    </vehicle>
    <vehicle id="336" depart="1092.00">
        <route edges="-939 -533"/>
    </vehicle>
    <vehicle id="337" depart="1095.00">
        <route edges="-939 -533"/>
    </vehicle>
    <vehicle id="340" depart="1101.00">
        <route edges="533 937 1089 1568"/>
    </vehicle>
    <vehicle id="342" depart="1118.00">
        <route edges="533 937 1089 1568"/>
    </vehicle>
    <vehicle id="344" depart="1124.00">
        <route edges="-1568 -1089 -937 -533"/>
    </vehicle>
    <vehicle id="345" depart="1132.00">
        <route edges="-939 -533"/>
    </vehicle>
    <vehicle id="346" depart="1141.00">
        <route edges="-1568 -1089 -937 -533"/>
    </vehicle>
    <vehicle id="349" depart="1153.00">
        <route edges="-939 -533"/>
    </vehicle>
    <vehicle id="353" depart="1164.00">
        <route edges="-1568 -1089 -937 939"/>
    </vehicle>
    <vehicle id="356" depart="1189.00">
        <route edges="533 939"/>
    </vehicle>
    <vehicle id="357" depart="1191.00">
        <route edges="533 937 1089 1568"/>
    </vehicle>
    <vehicle id="359" depart="1197.00">
        <route edges="-1568 -1089 -937 939"/>
    </vehicle>
    <vehicle id="361" depart="1200.00">
        <route edges="-1568 -1089 -937 -533"/>
    </vehicle>
    <vehicle id="363" depart="1207.00">
        <route edges="-1568 -1089 -937 -533"/>
    </vehicle>
    <vehicle id="364" depart="1207.00">
        <route edges="533 937 1089 1568"/>
    </vehicle>
    <vehicle id="365" depart="1208.00">
        <route edges="-939 -533"/>
    </vehicle>
    <vehicle id="366" depart="1210.00">
        <route edges="-1568 -1089 -937 -533"/>
    </vehicle>
    <vehicle id="367" depart="1214.00">
        <route edges="-939 -533"/>
    </vehicle>
    <vehicle id="368" depart="1218.00">
        <route edges="-1568 -1089 -937 -533"/>
    </vehicle>
    <vehicle id="370" depart="1225.00">
        <route edges="533 937 1089 1568"/>
    </vehicle>
    <vehicle id="371" depart="1226.00">
        <route edges="533 937 1089 1568"/>
    </vehicle>
    <vehicle id="372" depart="1228.00">
        <route edges="-939 937 1089 1568"/>
    </vehicle>
    <vehicle id="373" depart="1232.00">
        <route edges="-1568 -1089 -937 -533"/>
    </vehicle>
    <vehicle id="374" depart="1232.00">
        <route edges="-1568 -1089"/>
    </vehicle>
    <vehicle id="375" depart="1235.00">
        <route edges="-939 -533"/>
    </vehicle>
    <vehicle id="376" depart="1236.00">
        <route edges="533 937 1089 1568"/>
    </vehicle>
    <vehicle id="377" depart="1246.00">
        <route edges="533 937 1089 1568"/>
    </vehicle>
    <vehicle id="378" depart="1247.00">
        <route edges="-1568 -1089 -937 -533"/>
    </vehicle>
    <vehicle id="379" depart="1249.00">
        <route edges="-1568 -1089 -937 -533"/>
    </vehicle>
    <vehicle id="381" depart="1251.00">
        <route edges="-1568 -1089 -937 939"/>
    </vehicle>
    <vehicle id="382" depart="1254.00">
        <route edges="533 939"/>
    </vehicle>
    <vehicle id="384" depart="1259.00">
        <route edges="-1568 -1089 -937 939"/>
    </vehicle>
    <vehicle id="386" depart="1262.00">
        <route edges="533 939"/>
    </vehicle>
    <vehicle id="387" depart="1264.00">
        <route edges="-1568 -1089 -937 -533"/>
    </vehicle>
    <vehicle id="388" depart="1272.00">
        <route edges="-1568 -1089 -937 939"/>
    </vehicle>
    <vehicle id="389" depart="1275.00">
        <route edges="-939 937 1089 1568"/>
    </vehicle>
    <vehicle id="391" depart="1288.00">
        <route edges="533 939"/>
    </vehicle>
    <vehicle id="392" depart="1289.00">
        <route edges="-939 -533"/>
    </vehicle>
    <vehicle id="394" depart="1293.00">
        <route edges="-939 937 1089 1568"/>
    </vehicle>
    <vehicle id="398" depart="1301.00">
        <route edges="-1568 -1089 -937 939"/>
    </vehicle>
    <vehicle id="400" depart="1309.00">
        <route edges="-939 937 1089 1568"/>
    </vehicle>
    <vehicle id="401" depart="1310.00">
        <route edges="-1568 -1089 -937 -533"/>
    </vehicle>
    <vehicle id="402" depart="1313.00">
        <route edges="533 937 1089 1568"/>
    </vehicle>
    <vehicle id="404" depart="1318.00">
        <route edges="533 939"/>
    </vehicle>
    <vehicle id="406" depart="1328.00">
        <route edges="-1568 -1089 -937 939"/>
    </vehicle>
    <vehicle id="407" depart="1329.00">
        <route edges="-1568 -1089 -937 939"/>
    </vehicle>
    <vehicle id="411" depart="1344.00">
        <route edges="-1568 -1089 -937 939"/>
    </vehicle>
    <vehicle id="412" depart="1345.00">
        <route edges="-939 -533"/>
    </vehicle>
    <vehicle id="413" depart="1349.00">
        <route edges="-1568 -1089 -937 -533"/>
    </vehicle>
    <vehicle id="415" depart="1357.00">
        <route edges="-1568 -1089 -937 -533"/>
    </vehicle>
    <vehicle id="416" depart="1364.00">
        <route edges="533 939"/>
    </vehicle>
    <vehicle id="417" depart="1366.00">
        <route edges="533 939"/>
    </vehicle>
    <vehicle id="418" depart="1375.00">
        <route edges="-1568 -1089 -937 -533"/>
    </vehicle>
    <vehicle id="421" depart="1382.00">
        <route edges="-939 937 1089 1568"/>
    </vehicle>
    <vehicle id="422" depart="1383.00">
        <route edges="-939 -533"/>
    </vehicle>
    <vehicle id="424" depart="1395.00">
        <route edges="-1568 -1089 -937 939"/>
    </vehicle>
    <vehicle id="425" depart="1396.00">
        <route edges="-1568 -1089 -937 939"/>
    </vehicle>
    <vehicle id="426" depart="1397.00">
        <route edges="-939 -533"/>
    </vehicle>
    <vehicle id="427" depart="1402.00">
        <route edges="-1568 -1089 -937 -533"/>
    </vehicle>
    <vehicle id="429" depart="1407.00">
        <route edges="533 937 1089 1568"/>
    </vehicle>
    <vehicle id="430" depart="1413.00">
        <route edges="-939 -533"/>
    </vehicle>
    <vehicle id="432" depart="1415.00">
        <route edges="-939 937 1089 1568"/>
    </vehicle>
    <vehicle id="433" depart="1415.00">
        <route edges="533 939"/>
    </vehicle>
    <vehicle id="434" depart="1419.00">
        <route edges="1089 1568"/>
    </vehicle>
    <vehicle id="435" depart="1420.00">
        <route edges="533 937 1089 1568"/>
    </vehicle>
    <vehicle id="436" depart="1422.00">
        <route edges="-939 937 1089 1568"/>
    </vehicle>
    <vehicle id="437" depart="1425.00">
        <route edges="533 939"/>
    </vehicle>
    <vehicle id="438" depart="1433.00">
        <route edges="-1568 -1089 -937 939"/>
    </vehicle>
    <vehicle id="439" depart="1433.00">
        <route edges="533 937 1089 1568"/>
    </vehicle>
    <vehicle id="440" depart="1435.00">
        <route edges="-939 -533"/>
    </vehicle>
    <vehicle id="441" depart="1436.00">
        <route edges="-937 939"/>
    </vehicle>
    <vehicle id="442" depart="1438.00">
        <route edges="-1568 -1089 -937 939"/>
    </vehicle>
    <vehicle id="443" depart="1442.00">
        <route edges="-939 -533"/>
    </vehicle>
    <vehicle id="445" depart="1451.00">
        <route edges="-939 937 1089 1568"/>
    </vehicle>
    <vehicle id="447" depart="1463.00">
        <route edges="-939 -533"/>
    </vehicle>
    <vehicle id="448" depart="1465.00">
        <route edges="-939 937 1089 1568"/>
    </vehicle>
    <vehicle id="449" depart="1467.00">
        <route edges="-1568 -1089 -937 -533"/>
    </vehicle>
    <vehicle id="450" depart="1467.00">
        <route edges="-1568 -1089 -937 -533"/>
    </vehicle>
    <vehicle id="454" depart="1484.00">
        <route edges="-939 937 1089 1568"/>
    </vehicle>
    <vehicle id="456" depart="1491.00">
        <route edges="-1568 -1089 -937 939"/>
    </vehicle>
    <vehicle id="457" depart="1492.00">
        <route edges="533 939"/>
    </vehicle>
    <vehicle id="458" depart="1493.00">
        <route edges="533 939"/>
    </vehicle>
    <vehicle id="459" depart="1494.00">
        <route edges="-1568 -1089 -937 -533"/>
    </vehicle>
    <vehicle id="460" depart="1498.00">
        <route edges="533 939"/>
    </vehicle>
    <vehicle id="461" depart="1500.00">
        <route edges="533 939"/>
    </vehicle>
    <vehicle id="462" depart="1501.00">
        <route edges="-939 -533"/>
    </vehicle>
    <vehicle id="463" depart="1502.00">
        <route edges="-1568 -1089 -937 -533"/>
    </vehicle>