<?xml version="1.0" encoding="UTF-8"?>

<!-- generated on 2025-04-08 20:49:55 by Eclipse SUMO netgenerate Version 1.20.0
<configuration xmlns:xsi="http://www.w3.org/2001/XMLSchema-instance" xsi:noNamespaceSchemaLocation="http://sumo.dlr.de/xsd/netgenerateConfiguration.xsd">

    <random_network>
        <rand value="true"/>
        <rand.iterations value="75"/>
        <rand.max-distance value="500"/>
        <rand.min-distance value="200"/>
        <rand.min-angle value="90"/>
        <rand.connectivity value="0.75"/>
        <rand.grid value="true"/>
    </random_network>

    <output>
        <output-file value="random_grid_3.net.xml"/>
    </output>

    <processing>
        <fringe.guess value="true"/>
    </processing>

    <building_defaults>
        <default.lanenumber value="2"/>
    </building_defaults>

    <tls_building>
        <tls.guess value="True"/>
    </tls_building>

    <junctions>
        <no-turnarounds value="true"/>
        <junctions.join-same value="true"/>
    </junctions>

    <random_number>
        <seed value="3"/>
    </random_number>

</configuration>
-->

<net version="1.20" junctionCornerDetail="5" limitTurnSpeed="5.50" xmlns:xsi="http://www.w3.org/2001/XMLSchema-instance" xsi:noNamespaceSchemaLocation="http://sumo.dlr.de/xsd/net_file.xsd">

    <location netOffset="1800.00,2000.00" convBoundary="0.00,0.00,2800.00,3200.00" origBoundary="-1800.00,-2000.00,1000.00,1200.00" projParameter="!"/>

    <edge id=":1_0" function="internal">
        <lane id=":1_0_0" index="0" speed="6.51" length="9.03" shape="1795.20,2010.40 1794.85,2007.95 1793.80,2006.20 1792.05,2005.15 1789.60,2004.80"/>
    </edge>
    <edge id=":1_1" function="internal">
        <lane id=":1_1_0" index="0" speed="13.89" length="20.80" shape="1795.20,2010.40 1795.20,1989.60"/>
        <lane id=":1_1_1" index="1" speed="13.89" length="20.80" shape="1798.40,2010.40 1798.40,1989.60"/>
    </edge>
    <edge id=":1_3" function="internal">
        <lane id=":1_3_0" index="0" speed="9.26" length="5.01" shape="1798.40,2010.40 1799.11,2005.44"/>
    </edge>
    <edge id=":1_16" function="internal">
        <lane id=":1_16_0" index="0" speed="9.26" length="14.34" shape="1799.11,2005.44 1799.15,2005.15 1801.40,2001.40 1805.15,1999.15 1810.40,1998.40"/>
    </edge>
    <edge id=":1_4" function="internal">
        <lane id=":1_4_0" index="0" speed="6.51" length="9.03" shape="1810.40,2004.80 1807.95,2005.15 1806.20,2006.20 1805.15,2007.95 1804.80,2010.40"/>
    </edge>
    <edge id=":1_5" function="internal">
        <lane id=":1_5_0" index="0" speed="13.89" length="20.80" shape="1810.40,2004.80 1789.60,2004.80"/>
        <lane id=":1_5_1" index="1" speed="13.89" length="20.80" shape="1810.40,2001.60 1789.60,2001.60"/>
    </edge>
    <edge id=":1_7" function="internal">
        <lane id=":1_7_0" index="0" speed="9.26" length="5.01" shape="1810.40,2001.60 1805.44,2000.89"/>
    </edge>
    <edge id=":1_17" function="internal">
        <lane id=":1_17_0" index="0" speed="9.26" length="14.34" shape="1805.44,2000.89 1805.15,2000.85 1801.40,1998.60 1799.15,1994.85 1798.40,1989.60"/>
    </edge>
    <edge id=":1_8" function="internal">
        <lane id=":1_8_0" index="0" speed="6.51" length="9.03" shape="1804.80,1989.60 1805.15,1992.05 1806.20,1993.80 1807.95,1994.85 1810.40,1995.20"/>
    </edge>
    <edge id=":1_9" function="internal">
        <lane id=":1_9_0" index="0" speed="13.89" length="20.80" shape="1804.80,1989.60 1804.80,2010.40"/>
        <lane id=":1_9_1" index="1" speed="13.89" length="20.80" shape="1801.60,1989.60 1801.60,2010.40"/>
    </edge>
    <edge id=":1_11" function="internal">
        <lane id=":1_11_0" index="0" speed="9.26" length="5.01" shape="1801.60,1989.60 1800.89,1994.56"/>
    </edge>
    <edge id=":1_18" function="internal">
        <lane id=":1_18_0" index="0" speed="9.26" length="14.34" shape="1800.89,1994.56 1800.85,1994.85 1798.60,1998.60 1794.85,2000.85 1789.60,2001.60"/>
    </edge>
    <edge id=":1_12" function="internal">
        <lane id=":1_12_0" index="0" speed="6.51" length="9.03" shape="1789.60,1995.20 1792.05,1994.85 1793.80,1993.80 1794.85,1992.05 1795.20,1989.60"/>
    </edge>
    <edge id=":1_13" function="internal">
        <lane id=":1_13_0" index="0" speed="13.89" length="20.80" shape="1789.60,1995.20 1810.40,1995.20"/>
        <lane id=":1_13_1" index="1" speed="13.89" length="20.80" shape="1789.60,1998.40 1810.40,1998.40"/>
    </edge>
    <edge id=":1_15" function="internal">
        <lane id=":1_15_0" index="0" speed="9.26" length="5.01" shape="1789.60,1998.40 1794.56,1999.11"/>
    </edge>
    <edge id=":1_19" function="internal">
        <lane id=":1_19_0" index="0" speed="9.26" length="14.34" shape="1794.56,1999.11 1794.85,1999.15 1798.60,2001.40 1800.85,2005.15 1801.60,2010.40"/>
    </edge>
    <edge id=":1018_0" function="internal">
        <lane id=":1018_0_0" index="0" speed="6.51" length="9.03" shape="795.20,1610.40 794.85,1607.95 793.80,1606.20 792.05,1605.15 789.60,1604.80"/>
    </edge>
    <edge id=":1018_1" function="internal">
        <lane id=":1018_1_0" index="0" speed="13.89" length="20.80" shape="795.20,1610.40 795.20,1589.60"/>
        <lane id=":1018_1_1" index="1" speed="13.89" length="20.80" shape="798.40,1610.40 798.40,1589.60"/>
    </edge>
    <edge id=":1018_3" function="internal">
        <lane id=":1018_3_0" index="0" speed="13.89" length="20.80" shape="804.80,1589.60 804.80,1610.40"/>
        <lane id=":1018_3_1" index="1" speed="13.89" length="20.80" shape="801.60,1589.60 801.60,1610.40"/>
    </edge>
    <edge id=":1018_5" function="internal">
        <lane id=":1018_5_0" index="0" speed="9.26" length="5.01" shape="801.60,1589.60 800.89,1594.56"/>
    </edge>
    <edge id=":1018_9" function="internal">
        <lane id=":1018_9_0" index="0" speed="9.26" length="14.34" shape="800.89,1594.56 800.85,1594.85 798.60,1598.60 794.85,1600.85 789.60,1601.60"/>
    </edge>
    <edge id=":1018_6" function="internal">
        <lane id=":1018_6_0" index="0" speed="6.51" length="9.03" shape="789.60,1595.20 792.05,1594.85 793.80,1593.80 794.85,1592.05 795.20,1589.60"/>
        <lane id=":1018_6_1" index="1" speed="8.00" length="14.19" shape="789.60,1598.40 793.45,1597.85 796.20,1596.20 797.85,1593.45 798.40,1589.60"/>
    </edge>
    <edge id=":1018_8" function="internal">
        <lane id=":1018_8_0" index="0" speed="9.26" length="19.35" shape="789.60,1598.40 794.85,1599.15 798.60,1601.40 800.85,1605.15 801.60,1610.40"/>
    </edge>
    <edge id=":1021_0" function="internal">
        <lane id=":1021_0_0" index="0" speed="6.51" length="9.03" shape="1195.20,1010.40 1194.85,1007.95 1193.80,1006.20 1192.05,1005.15 1189.60,1004.80"/>
        <lane id=":1021_0_1" index="1" speed="8.00" length="14.19" shape="1198.40,1010.40 1197.85,1006.55 1196.20,1003.80 1193.45,1002.15 1189.60,1001.60"/>
    </edge>
    <edge id=":1021_2" function="internal">
        <lane id=":1021_2_0" index="0" speed="9.26" length="19.35" shape="1198.40,1010.40 1199.15,1005.15 1201.40,1001.40 1205.15,999.15 1210.40,998.40"/>
    </edge>
    <edge id=":1021_3" function="internal">
        <lane id=":1021_3_0" index="0" speed="6.51" length="9.03" shape="1210.40,1004.80 1207.95,1005.15 1206.20,1006.20 1205.15,1007.95 1204.80,1010.40"/>
    </edge>
    <edge id=":1021_4" function="internal">
        <lane id=":1021_4_0" index="0" speed="13.89" length="20.80" shape="1210.40,1004.80 1189.60,1004.80"/>
        <lane id=":1021_4_1" index="1" speed="13.89" length="20.80" shape="1210.40,1001.60 1189.60,1001.60"/>
    </edge>
    <edge id=":1021_6" function="internal">
        <lane id=":1021_6_0" index="0" speed="13.89" length="20.80" shape="1189.60,995.20 1210.40,995.20"/>
        <lane id=":1021_6_1" index="1" speed="13.89" length="20.80" shape="1189.60,998.40 1210.40,998.40"/>
    </edge>
    <edge id=":1021_8" function="internal">
        <lane id=":1021_8_0" index="0" speed="9.26" length="5.01" shape="1189.60,998.40 1194.56,999.11"/>
    </edge>
    <edge id=":1021_9" function="internal">
        <lane id=":1021_9_0" index="0" speed="9.26" length="14.34" shape="1194.56,999.11 1194.85,999.15 1198.60,1001.40 1200.85,1005.15 1201.60,1010.40"/>
    </edge>
    <edge id=":1033_0" function="internal">
        <lane id=":1033_0_0" index="0" speed="6.51" length="9.03" shape="1795.20,2810.40 1794.85,2807.95 1793.80,2806.20 1792.05,2805.15 1789.60,2804.80"/>
    </edge>
    <edge id=":1033_1" function="internal">
        <lane id=":1033_1_0" index="0" speed="13.89" length="20.80" shape="1795.20,2810.40 1795.20,2789.60"/>
        <lane id=":1033_1_1" index="1" speed="13.89" length="20.80" shape="1798.40,2810.40 1798.40,2789.60"/>
    </edge>
    <edge id=":1033_3" function="internal">
        <lane id=":1033_3_0" index="0" speed="9.26" length="5.01" shape="1798.40,2810.40 1799.11,2805.44"/>
    </edge>
    <edge id=":1033_16" function="internal">
        <lane id=":1033_16_0" index="0" speed="9.26" length="14.34" shape="1799.11,2805.44 1799.15,2805.15 1801.40,2801.40 1805.15,2799.15 1810.40,2798.40"/>
    </edge>
    <edge id=":1033_4" function="internal">
        <lane id=":1033_4_0" index="0" speed="6.51" length="9.03" shape="1810.40,2804.80 1807.95,2805.15 1806.20,2806.20 1805.15,2807.95 1804.80,2810.40"/>
    </edge>
    <edge id=":1033_5" function="internal">
        <lane id=":1033_5_0" index="0" speed="13.89" length="20.80" shape="1810.40,2804.80 1789.60,2804.80"/>
        <lane id=":1033_5_1" index="1" speed="13.89" length="20.80" shape="1810.40,2801.60 1789.60,2801.60"/>
    </edge>
    <edge id=":1033_7" function="internal">
        <lane id=":1033_7_0" index="0" speed="9.26" length="5.01" shape="1810.40,2801.60 1805.44,2800.89"/>
    </edge>
    <edge id=":1033_17" function="internal">
        <lane id=":1033_17_0" index="0" speed="9.26" length="14.34" shape="1805.44,2800.89 1805.15,2800.85 1801.40,2798.60 1799.15,2794.85 1798.40,2789.60"/>
    </edge>
    <edge id=":1033_8" function="internal">
        <lane id=":1033_8_0" index="0" speed="6.51" length="9.03" shape="1804.80,2789.60 1805.15,2792.05 1806.20,2793.80 1807.95,2794.85 1810.40,2795.20"/>
    </edge>
    <edge id=":1033_9" function="internal">
        <lane id=":1033_9_0" index="0" speed="13.89" length="20.80" shape="1804.80,2789.60 1804.80,2810.40"/>
        <lane id=":1033_9_1" index="1" speed="13.89" length="20.80" shape="1801.60,2789.60 1801.60,2810.40"/>
    </edge>
    <edge id=":1033_11" function="internal">
        <lane id=":1033_11_0" index="0" speed="9.26" length="5.01" shape="1801.60,2789.60 1800.89,2794.56"/>
    </edge>
    <edge id=":1033_18" function="internal">
        <lane id=":1033_18_0" index="0" speed="9.26" length="14.34" shape="1800.89,2794.56 1800.85,2794.85 1798.60,2798.60 1794.85,2800.85 1789.60,2801.60"/>
    </edge>
    <edge id=":1033_12" function="internal">
        <lane id=":1033_12_0" index="0" speed="6.51" length="9.03" shape="1789.60,2795.20 1792.05,2794.85 1793.80,2793.80 1794.85,2792.05 1795.20,2789.60"/>
    </edge>
    <edge id=":1033_13" function="internal">
        <lane id=":1033_13_0" index="0" speed="13.89" length="20.80" shape="1789.60,2795.20 1810.40,2795.20"/>
        <lane id=":1033_13_1" index="1" speed="13.89" length="20.80" shape="1789.60,2798.40 1810.40,2798.40"/>
    </edge>
    <edge id=":1033_15" function="internal">
        <lane id=":1033_15_0" index="0" speed="9.26" length="5.01" shape="1789.60,2798.40 1794.56,2799.11"/>
    </edge>
    <edge id=":1033_19" function="internal">
        <lane id=":1033_19_0" index="0" speed="9.26" length="14.34" shape="1794.56,2799.11 1794.85,2799.15 1798.60,2801.40 1800.85,2805.15 1801.60,2810.40"/>
    </edge>
    <edge id=":104_0" function="internal">
        <lane id=":104_0_0" index="0" speed="13.89" length="20.80" shape="1610.40,1804.80 1589.60,1804.80"/>
        <lane id=":104_0_1" index="1" speed="13.89" length="20.80" shape="1610.40,1801.60 1589.60,1801.60"/>
    </edge>
    <edge id=":104_2" function="internal">
        <lane id=":104_2_0" index="0" speed="9.26" length="5.01" shape="1610.40,1801.60 1605.44,1800.89"/>
    </edge>
    <edge id=":104_9" function="internal">
        <lane id=":104_9_0" index="0" speed="9.26" length="14.34" shape="1605.44,1800.89 1605.15,1800.85 1601.40,1798.60 1599.15,1794.85 1598.40,1789.60"/>
    </edge>
    <edge id=":104_3" function="internal">
        <lane id=":104_3_0" index="0" speed="6.51" length="9.03" shape="1604.80,1789.60 1605.15,1792.05 1606.20,1793.80 1607.95,1794.85 1610.40,1795.20"/>
        <lane id=":104_3_1" index="1" speed="8.00" length="14.19" shape="1601.60,1789.60 1602.15,1793.45 1603.80,1796.20 1606.55,1797.85 1610.40,1798.40"/>
    </edge>
    <edge id=":104_5" function="internal">
        <lane id=":104_5_0" index="0" speed="9.26" length="19.35" shape="1601.60,1789.60 1600.85,1794.85 1598.60,1798.60 1594.85,1800.85 1589.60,1801.60"/>
    </edge>
    <edge id=":104_6" function="internal">
        <lane id=":104_6_0" index="0" speed="6.51" length="9.03" shape="1589.60,1795.20 1592.05,1794.85 1593.80,1793.80 1594.85,1792.05 1595.20,1789.60"/>
    </edge>
    <edge id=":104_7" function="internal">
        <lane id=":104_7_0" index="0" speed="13.89" length="20.80" shape="1589.60,1795.20 1610.40,1795.20"/>
        <lane id=":104_7_1" index="1" speed="13.89" length="20.80" shape="1589.60,1798.40 1610.40,1798.40"/>
    </edge>
    <edge id=":1144_0" function="internal">
        <lane id=":1144_0_0" index="0" speed="13.89" length="20.80" shape="2195.20,2410.40 2195.20,2389.60"/>
        <lane id=":1144_0_1" index="1" speed="13.89" length="20.80" shape="2198.40,2410.40 2198.40,2389.60"/>
    </edge>
    <edge id=":1144_2" function="internal">
        <lane id=":1144_2_0" index="0" speed="9.26" length="5.01" shape="2198.40,2410.40 2199.11,2405.44"/>
    </edge>
    <edge id=":1144_9" function="internal">
        <lane id=":1144_9_0" index="0" speed="9.26" length="14.34" shape="2199.11,2405.44 2199.15,2405.15 2201.40,2401.40 2205.15,2399.15 2210.40,2398.40"/>
    </edge>
    <edge id=":1144_3" function="internal">
        <lane id=":1144_3_0" index="0" speed="6.51" length="9.03" shape="2210.40,2404.80 2207.95,2405.15 2206.20,2406.20 2205.15,2407.95 2204.80,2410.40"/>
        <lane id=":1144_3_1" index="1" speed="8.00" length="14.19" shape="2210.40,2401.60 2206.55,2402.15 2203.80,2403.80 2202.15,2406.55 2201.60,2410.40"/>
    </edge>
    <edge id=":1144_5" function="internal">
        <lane id=":1144_5_0" index="0" speed="9.26" length="19.35" shape="2210.40,2401.60 2205.15,2400.85 2201.40,2398.60 2199.15,2394.85 2198.40,2389.60"/>
    </edge>
    <edge id=":1144_6" function="internal">
        <lane id=":1144_6_0" index="0" speed="6.51" length="9.03" shape="2204.80,2389.60 2205.15,2392.05 2206.20,2393.80 2207.95,2394.85 2210.40,2395.20"/>
    </edge>
    <edge id=":1144_7" function="internal">
        <lane id=":1144_7_0" index="0" speed="13.89" length="20.80" shape="2204.80,2389.60 2204.80,2410.40"/>
        <lane id=":1144_7_1" index="1" speed="13.89" length="20.80" shape="2201.60,2389.60 2201.60,2410.40"/>
    </edge>
    <edge id=":1151_0" function="internal">
        <lane id=":1151_0_0" index="0" speed="13.89" length="20.80" shape="1010.40,3004.80 989.60,3004.80"/>
        <lane id=":1151_0_1" index="1" speed="13.89" length="20.80" shape="1010.40,3001.60 989.60,3001.60"/>
    </edge>
    <edge id=":1151_2" function="internal">
        <lane id=":1151_2_0" index="0" speed="9.26" length="5.01" shape="1010.40,3001.60 1005.44,3000.89"/>
    </edge>
    <edge id=":1151_9" function="internal">
        <lane id=":1151_9_0" index="0" speed="9.26" length="14.34" shape="1005.44,3000.89 1005.15,3000.85 1001.40,2998.60 999.15,2994.85 998.40,2989.60"/>
    </edge>
    <edge id=":1151_3" function="internal">
        <lane id=":1151_3_0" index="0" speed="6.51" length="9.03" shape="1004.80,2989.60 1005.15,2992.05 1006.20,2993.80 1007.95,2994.85 1010.40,2995.20"/>
        <lane id=":1151_3_1" index="1" speed="8.00" length="14.19" shape="1001.60,2989.60 1002.15,2993.45 1003.80,2996.20 1006.55,2997.85 1010.40,2998.40"/>
    </edge>
    <edge id=":1151_5" function="internal">
        <lane id=":1151_5_0" index="0" speed="9.26" length="19.35" shape="1001.60,2989.60 1000.85,2994.85 998.60,2998.60 994.85,3000.85 989.60,3001.60"/>
    </edge>
    <edge id=":1151_6" function="internal">
        <lane id=":1151_6_0" index="0" speed="6.51" length="9.03" shape="989.60,2995.20 992.05,2994.85 993.80,2993.80 994.85,2992.05 995.20,2989.60"/>
    </edge>
    <edge id=":1151_7" function="internal">
        <lane id=":1151_7_0" index="0" speed="13.89" length="20.80" shape="989.60,2995.20 1010.40,2995.20"/>
        <lane id=":1151_7_1" index="1" speed="13.89" length="20.80" shape="989.60,2998.40 1010.40,2998.40"/>
    </edge>
    <edge id=":1159_0" function="internal">
        <lane id=":1159_0_0" index="0" speed="13.89" length="20.80" shape="595.20,2810.40 595.20,2789.60"/>
        <lane id=":1159_0_1" index="1" speed="13.89" length="20.80" shape="598.40,2810.40 598.40,2789.60"/>
    </edge>
    <edge id=":1159_2" function="internal">
        <lane id=":1159_2_0" index="0" speed="9.26" length="5.01" shape="598.40,2810.40 599.11,2805.44"/>
    </edge>
    <edge id=":1159_9" function="internal">
        <lane id=":1159_9_0" index="0" speed="9.26" length="14.34" shape="599.11,2805.44 599.15,2805.15 601.40,2801.40 605.15,2799.15 610.40,2798.40"/>
    </edge>
    <edge id=":1159_3" function="internal">
        <lane id=":1159_3_0" index="0" speed="6.51" length="9.03" shape="610.40,2804.80 607.95,2805.15 606.20,2806.20 605.15,2807.95 604.80,2810.40"/>
        <lane id=":1159_3_1" index="1" speed="8.00" length="14.19" shape="610.40,2801.60 606.55,2802.15 603.80,2803.80 602.15,2806.55 601.60,2810.40"/>
    </edge>
    <edge id=":1159_5" function="internal">
        <lane id=":1159_5_0" index="0" speed="9.26" length="19.35" shape="610.40,2801.60 605.15,2800.85 601.40,2798.60 599.15,2794.85 598.40,2789.60"/>
    </edge>
    <edge id=":1159_6" function="internal">
        <lane id=":1159_6_0" index="0" speed="6.51" length="9.03" shape="604.80,2789.60 605.15,2792.05 606.20,2793.80 607.95,2794.85 610.40,2795.20"/>
    </edge>
    <edge id=":1159_7" function="internal">
        <lane id=":1159_7_0" index="0" speed="13.89" length="20.80" shape="604.80,2789.60 604.80,2810.40"/>
        <lane id=":1159_7_1" index="1" speed="13.89" length="20.80" shape="601.60,2789.60 601.60,2810.40"/>
    </edge>
    <edge id=":1168_0" function="internal">
        <lane id=":1168_0_0" index="0" speed="13.89" length="0.10" shape="400.00,2004.80 400.00,2004.80"/>
        <lane id=":1168_0_1" index="1" speed="13.89" length="0.10" shape="400.00,2001.60 400.00,2001.60"/>
    </edge>
    <edge id=":1168_2" function="internal">
        <lane id=":1168_2_0" index="0" speed="13.89" length="0.10" shape="400.00,1995.20 400.00,1995.20"/>
        <lane id=":1168_2_1" index="1" speed="13.89" length="0.10" shape="400.00,1998.40 400.00,1998.40"/>
    </edge>
    <edge id=":1170_0" function="internal">
        <lane id=":1170_0_0" index="0" speed="6.51" length="9.03" shape="595.20,2210.40 594.85,2207.95 593.80,2206.20 592.05,2205.15 589.60,2204.80"/>
    </edge>
    <edge id=":1170_1" function="internal">
        <lane id=":1170_1_0" index="0" speed="13.89" length="20.80" shape="595.20,2210.40 595.20,2189.60"/>
        <lane id=":1170_1_1" index="1" speed="13.89" length="20.80" shape="598.40,2210.40 598.40,2189.60"/>
    </edge>
    <edge id=":1170_3" function="internal">
        <lane id=":1170_3_0" index="0" speed="13.89" length="20.80" shape="604.80,2189.60 604.80,2210.40"/>
        <lane id=":1170_3_1" index="1" speed="13.89" length="20.80" shape="601.60,2189.60 601.60,2210.40"/>
    </edge>
    <edge id=":1170_5" function="internal">
        <lane id=":1170_5_0" index="0" speed="9.26" length="5.01" shape="601.60,2189.60 600.89,2194.56"/>
    </edge>
    <edge id=":1170_9" function="internal">
        <lane id=":1170_9_0" index="0" speed="9.26" length="14.34" shape="600.89,2194.56 600.85,2194.85 598.60,2198.60 594.85,2200.85 589.60,2201.60"/>
    </edge>
    <edge id=":1170_6" function="internal">
        <lane id=":1170_6_0" index="0" speed="6.51" length="9.03" shape="589.60,2195.20 592.05,2194.85 593.80,2193.80 594.85,2192.05 595.20,2189.60"/>
        <lane id=":1170_6_1" index="1" speed="8.00" length="14.19" shape="589.60,2198.40 593.45,2197.85 596.20,2196.20 597.85,2193.45 598.40,2189.60"/>
    </edge>
    <edge id=":1170_8" function="internal">
        <lane id=":1170_8_0" index="0" speed="9.26" length="19.35" shape="589.60,2198.40 594.85,2199.15 598.60,2201.40 600.85,2205.15 601.60,2210.40"/>
    </edge>
    <edge id=":12_0" function="internal">
        <lane id=":12_0_0" index="0" speed="6.51" length="9.03" shape="1795.20,1810.40 1794.85,1807.95 1793.80,1806.20 1792.05,1805.15 1789.60,1804.80"/>
    </edge>
    <edge id=":12_1" function="internal">
        <lane id=":12_1_0" index="0" speed="13.89" length="20.80" shape="1795.20,1810.40 1795.20,1789.60"/>
        <lane id=":12_1_1" index="1" speed="13.89" length="20.80" shape="1798.40,1810.40 1798.40,1789.60"/>
    </edge>
    <edge id=":12_3" function="internal">
        <lane id=":12_3_0" index="0" speed="13.89" length="20.80" shape="1804.80,1789.60 1804.80,1810.40"/>
        <lane id=":12_3_1" index="1" speed="13.89" length="20.80" shape="1801.60,1789.60 1801.60,1810.40"/>
    </edge>
    <edge id=":12_5" function="internal">
        <lane id=":12_5_0" index="0" speed="9.26" length="5.01" shape="1801.60,1789.60 1800.89,1794.56"/>
    </edge>
    <edge id=":12_9" function="internal">
        <lane id=":12_9_0" index="0" speed="9.26" length="14.34" shape="1800.89,1794.56 1800.85,1794.85 1798.60,1798.60 1794.85,1800.85 1789.60,1801.60"/>
    </edge>
    <edge id=":12_6" function="internal">
        <lane id=":12_6_0" index="0" speed="6.51" length="9.03" shape="1789.60,1795.20 1792.05,1794.85 1793.80,1793.80 1794.85,1792.05 1795.20,1789.60"/>
        <lane id=":12_6_1" index="1" speed="8.00" length="14.19" shape="1789.60,1798.40 1793.45,1797.85 1796.20,1796.20 1797.85,1793.45 1798.40,1789.60"/>
    </edge>
    <edge id=":12_8" function="internal">
        <lane id=":12_8_0" index="0" speed="9.26" length="19.35" shape="1789.60,1798.40 1794.85,1799.15 1798.60,1801.40 1800.85,1805.15 1801.60,1810.40"/>
    </edge>
    <edge id=":1392_0" function="internal">
        <lane id=":1392_0_0" index="0" speed="6.51" length="9.03" shape="2395.20,1810.40 2394.85,1807.95 2393.80,1806.20 2392.05,1805.15 2389.60,1804.80"/>
        <lane id=":1392_0_1" index="1" speed="8.00" length="14.19" shape="2398.40,1810.40 2397.85,1806.55 2396.20,1803.80 2393.45,1802.15 2389.60,1801.60"/>
    </edge>
    <edge id=":1392_2" function="internal">
        <lane id=":1392_2_0" index="0" speed="9.26" length="19.35" shape="2398.40,1810.40 2399.15,1805.15 2401.40,1801.40 2405.15,1799.15 2410.40,1798.40"/>
    </edge>
    <edge id=":1392_3" function="internal">
        <lane id=":1392_3_0" index="0" speed="6.51" length="9.03" shape="2410.40,1804.80 2407.95,1805.15 2406.20,1806.20 2405.15,1807.95 2404.80,1810.40"/>
    </edge>
    <edge id=":1392_4" function="internal">
        <lane id=":1392_4_0" index="0" speed="13.89" length="20.80" shape="2410.40,1804.80 2389.60,1804.80"/>
        <lane id=":1392_4_1" index="1" speed="13.89" length="20.80" shape="2410.40,1801.60 2389.60,1801.60"/>
    </edge>
    <edge id=":1392_6" function="internal">
        <lane id=":1392_6_0" index="0" speed="13.89" length="20.80" shape="2389.60,1795.20 2410.40,1795.20"/>
        <lane id=":1392_6_1" index="1" speed="13.89" length="20.80" shape="2389.60,1798.40 2410.40,1798.40"/>
    </edge>
    <edge id=":1392_8" function="internal">
        <lane id=":1392_8_0" index="0" speed="9.26" length="5.01" shape="2389.60,1798.40 2394.56,1799.11"/>
    </edge>
    <edge id=":1392_9" function="internal">
        <lane id=":1392_9_0" index="0" speed="9.26" length="14.34" shape="2394.56,1799.11 2394.85,1799.15 2398.60,1801.40 2400.85,1805.15 2401.60,1810.40"/>
    </edge>
    <edge id=":1412_0" function="internal">
        <lane id=":1412_0_0" index="0" speed="6.51" length="9.03" shape="795.20,1410.40 794.85,1407.95 793.80,1406.20 792.05,1405.15 789.60,1404.80"/>
    </edge>
    <edge id=":1412_1" function="internal">
        <lane id=":1412_1_0" index="0" speed="13.89" length="19.66" shape="795.20,1410.40 795.21,1404.37 795.56,1400.17 796.74,1396.18 799.26,1390.74"/>
        <lane id=":1412_1_1" index="1" speed="13.89" length="19.66" shape="798.40,1410.40 798.40,1404.80 798.70,1400.92 799.79,1397.22 802.13,1392.17"/>
    </edge>
    <edge id=":1412_3" function="internal">
        <lane id=":1412_3_0" index="0" speed="13.89" length="16.67" shape="807.85,1395.03 805.90,1399.29 805.01,1402.41 804.78,1405.68 804.80,1410.40"/>
        <lane id=":1412_3_1" index="1" speed="13.89" length="16.67" shape="804.99,1393.60 802.84,1398.25 801.86,1401.66 801.59,1405.24 801.60,1410.40"/>
    </edge>
    <edge id=":1412_5" function="internal">
        <lane id=":1412_5_0" index="0" speed="11.11" length="3.99" shape="804.99,1393.60 802.69,1396.87"/>
    </edge>
    <edge id=":1412_9" function="internal">
        <lane id=":1412_9_0" index="0" speed="11.11" length="14.31" shape="802.69,1396.87 802.53,1397.10 799.14,1399.60 794.83,1401.10 789.60,1401.60"/>
    </edge>
    <edge id=":1412_6" function="internal">
        <lane id=":1412_6_0" index="0" speed="8.79" length="11.21" shape="789.60,1395.20 792.99,1394.92 795.73,1394.08 797.82,1392.69 799.26,1390.74"/>
        <lane id=":1412_6_1" index="1" speed="10.02" length="14.76" shape="789.60,1398.40 793.91,1398.01 797.44,1396.84 800.18,1394.90 802.13,1392.17"/>
    </edge>
    <edge id=":1412_8" function="internal">
        <lane id=":1412_8_0" index="0" speed="9.26" length="19.35" shape="789.60,1398.40 794.85,1399.15 798.60,1401.40 800.85,1405.15 801.60,1410.40"/>
    </edge>
    <edge id=":1415_0" function="internal">
        <lane id=":1415_0_0" index="0" speed="4.00" length="1.78" shape="1003.96,1004.80 1003.50,1004.86 1003.10,1005.02 1002.78,1005.30 1002.52,1005.68"/>
        <lane id=":1415_0_1" index="1" speed="6.25" length="5.33" shape="1003.96,1001.60 1002.57,1001.77 1001.40,1002.26 1000.43,1003.09 999.66,1004.25"/>
    </edge>
    <edge id=":1415_2" function="internal">
        <lane id=":1415_2_0" index="0" speed="9.24" length="12.45" shape="993.94,1001.39 995.72,998.68 997.99,996.75 1000.73,995.59 1003.96,995.20"/>
        <lane id=":1415_2_1" index="1" speed="7.89" length="8.89" shape="996.80,1002.82 998.08,1000.89 999.69,999.51 1001.65,998.68 1003.96,998.40"/>
    </edge>
    <edge id=":1548_0" function="internal">
        <lane id=":1548_0_0" index="0" speed="6.51" length="9.03" shape="1795.20,210.40 1794.85,207.95 1793.80,206.20 1792.05,205.15 1789.60,204.80"/>
    </edge>
    <edge id=":1548_1" function="internal">
        <lane id=":1548_1_0" index="0" speed="13.89" length="20.80" shape="1795.20,210.40 1795.20,189.60"/>
        <lane id=":1548_1_1" index="1" speed="13.89" length="20.80" shape="1798.40,210.40 1798.40,189.60"/>
    </edge>
    <edge id=":1548_3" function="internal">
        <lane id=":1548_3_0" index="0" speed="13.89" length="20.80" shape="1804.80,189.60 1804.80,210.40"/>
        <lane id=":1548_3_1" index="1" speed="13.89" length="20.80" shape="1801.60,189.60 1801.60,210.40"/>
    </edge>
    <edge id=":1548_5" function="internal">
        <lane id=":1548_5_0" index="0" speed="9.26" length="5.01" shape="1801.60,189.60 1800.89,194.56"/>
    </edge>
    <edge id=":1548_9" function="internal">
        <lane id=":1548_9_0" index="0" speed="9.26" length="14.34" shape="1800.89,194.56 1800.85,194.85 1798.60,198.60 1794.85,200.85 1789.60,201.60"/>
    </edge>
    <edge id=":1548_6" function="internal">
        <lane id=":1548_6_0" index="0" speed="6.51" length="9.03" shape="1789.60,195.20 1792.05,194.85 1793.80,193.80 1794.85,192.05 1795.20,189.60"/>
        <lane id=":1548_6_1" index="1" speed="8.00" length="14.19" shape="1789.60,198.40 1793.45,197.85 1796.20,196.20 1797.85,193.45 1798.40,189.60"/>
    </edge>
    <edge id=":1548_8" function="internal">
        <lane id=":1548_8_0" index="0" speed="9.26" length="19.35" shape="1789.60,198.40 1794.85,199.15 1798.60,201.40 1800.85,205.15 1801.60,210.40"/>
    </edge>
    <edge id=":1674_0" function="internal">
        <lane id=":1674_0_0" index="0" speed="8.96" length="18.06" shape="2004.80,2593.60 2004.10,2598.50 2002.00,2602.00 1998.50,2604.10 1993.60,2604.80"/>
        <lane id=":1674_0_1" index="1" speed="7.66" length="12.90" shape="2001.60,2593.60 2001.10,2597.10 1999.60,2599.60 1997.10,2601.10 1993.60,2601.60"/>
    </edge>
    <edge id=":1674_2" function="internal">
        <lane id=":1674_2_0" index="0" speed="3.90" length="2.58" shape="1993.60,2595.20 1994.30,2595.10 1994.80,2594.80 1995.10,2594.30 1995.20,2593.60"/>
        <lane id=":1674_2_1" index="1" speed="6.08" length="7.74" shape="1993.60,2598.40 1995.70,2598.10 1997.20,2597.20 1998.10,2595.70 1998.40,2593.60"/>
    </edge>
    <edge id=":1784_0" function="internal">
        <lane id=":1784_0_0" index="0" speed="6.51" length="9.03" shape="595.20,2610.40 594.85,2607.95 593.80,2606.20 592.05,2605.15 589.60,2604.80"/>
    </edge>
    <edge id=":1784_1" function="internal">
        <lane id=":1784_1_0" index="0" speed="13.89" length="20.80" shape="595.20,2610.40 595.20,2589.60"/>
        <lane id=":1784_1_1" index="1" speed="13.89" length="20.80" shape="598.40,2610.40 598.40,2589.60"/>
    </edge>
    <edge id=":1784_3" function="internal">
        <lane id=":1784_3_0" index="0" speed="13.89" length="20.80" shape="604.80,2589.60 604.80,2610.40"/>
        <lane id=":1784_3_1" index="1" speed="13.89" length="20.80" shape="601.60,2589.60 601.60,2610.40"/>
    </edge>
    <edge id=":1784_5" function="internal">