<?xml version="1.0" encoding="UTF-8"?>

<!-- generated on 2025-03-19 17:43:57.886833 by randomTrips.py v1_22_0+0449-9311ec3459f
<configuration>
    <net-file value="random_subnetwork_3.net.xml"/>
    <output-trip-file value="random_subnetwork_3_light.trips.xml"/>
    <fringe-factor value="100"/>
    <min-distance value="600.0"/>
    <remove-loops value="True"/>
    <validate value="True"/>
    <period value="2.6"/>
    <random-depart value="True"/>
    <binomial value="10"/>
</configuration>
-->

<!-- generated on 2025-03-19 17:43:57 by Eclipse SUMO duarouter Version v1_22_0+0449-9311ec3459f
<duarouterConfiguration xmlns:xsi="http://www.w3.org/2001/XMLSchema-instance" xsi:noNamespaceSchemaLocation="http://sumo.dlr.de/xsd/duarouterConfiguration.xsd">

    <input>
        <net-file value="random_subnetwork_3.net.xml"/>
        <route-files value="random_subnetwork_3_light.trips.xml"/>
    </input>

    <output>
        <output-file value="random_subnetwork_3_light.trips.xml.tmp"/>
        <alternatives-output value="NUL"/>
        <write-trips value="true"/>
    </output>

    <processing>
        <remove-loops value="true"/>
    </processing>

    <time>
        <begin value="0.0"/>
        <end value="3600.0"/>
    </time>

    <report>
        <no-warnings value="true"/>
        <ignore-errors value="true"/>
        <no-step-log value="true"/>
    </report>

</duarouterConfiguration>
-->

<routes xmlns:xsi="http://www.w3.org/2001/XMLSchema-instance" xsi:noNamespaceSchemaLocation="http://sumo.dlr.de/xsd/routes_file.xsd">
    <trip id="0" depart="0.00" from="-1799" to="-353"/>
    <trip id="1" depart="0.00" from="353" to="1799"/>
    <trip id="2" depart="4.00" from="353" to="1799"/>
    <trip id="3" depart="7.00" from="353" to="1799"/>
    <trip id="4" depart="8.00" from="353" to="1799"/>
    <trip id="5" depart="22.00" from="353" to="1799"/>
    <trip id="6" depart="24.00" from="-1799" to="-353"/>
    <trip id="7" depart="26.00" from="353" to="1799"/>
    <trip id="8" depart="27.00" from="-1799" to="-353"/>
    <trip id="9" depart="28.00" from="-1799" to="-353"/>
    <trip id="10" depart="28.00" from="353" to="1799"/>
    <trip id="11" depart="28.00" from="-1799" to="-353"/>
    <trip id="12" depart="30.00" from="353" to="1799"/>
    <trip id="13" depart="34.00" from="-1799" to="-353"/>
    <trip id="14" depart="37.00" from="353" to="1799"/>
    <trip id="15" depart="41.00" from="353" to="1799"/>
    <trip id="16" depart="54.00" from="353" to="1799"/>
    <trip id="17" depart="55.00" from="353" to="1799"/>
    <trip id="18" depart="57.00" from="353" to="1799"/>
    <trip id="19" depart="61.00" from="-1799" to="-353"/>
    <trip id="20" depart="64.00" from="-1799" to="-353"/>
    <trip id="21" depart="65.00" from="-1799" to="-353"/>
    <trip id="22" depart="65.00" from="-1799" to="-353"/>
    <trip id="23" depart="74.00" from="-1799" to="-353"/>
    <trip id="24" depart="76.00" from="-1799" to="-353"/>
    <trip id="25" depart="87.00" from="353" to="1799"/>
    <trip id="26" depart="89.00" from="-1799" to="-353"/>
    <trip id="27" depart="91.00" from="353" to="1799"/>
    <trip id="28" depart="98.00" from="353" to="1799"/>
    <trip id="29" depart="100.00" from="353" to="1799"/>
    <trip id="30" depart="103.00" from="353" to="1799"/>
    <trip id="31" depart="107.00" from="353" to="1799"/>
    <trip id="32" depart="111.00" from="-1799" to="-353"/>
    <trip id="33" depart="117.00" from="353" to="1799"/>
    <trip id="34" depart="119.00" from="353" to="1799"/>
    <trip id="35" depart="122.00" from="-1799" to="-353"/>
    <trip id="36" depart="128.00" from="353" to="1799"/>
    <trip id="37" depart="130.00" from="353" to="1799"/>
    <trip id="38" depart="130.00" from="-1799" to="-353"/>
    <trip id="39" depart="130.00" from="353" to="1799"/>
    <trip id="40" depart="134.00" from="353" to="1799"/>
    <trip id="41" depart="138.00" from="-1799" to="-353"/>
    <trip id="42" depart="140.00" from="-1799" to="-353"/>
    <trip id="43" depart="141.00" from="353" to="1799"/>
    <trip id="44" depart="143.00" from="353" to="1799"/>
    <trip id="45" depart="145.00" from="353" to="1799"/>
    <trip id="46" depart="152.00" from="-1799" to="-353"/>
    <trip id="47" depart="153.00" from="-1799" to="-353"/>
    <trip id="48" depart="157.00" from="-1799" to="-353"/>
    <trip id="49" depart="164.00" from="353" to="1799"/>
    <trip id="50" depart="165.00" from="353" to="1799"/>
    <trip id="51" depart="166.00" from="-1799" to="-353"/>
    <trip id="52" depart="170.00" from="-1799" to="-353"/>
    <trip id="53" depart="175.00" from="353" to="1799"/>
    <trip id="54" depart="179.00" from="-1799" to="-353"/>
    <trip id="55" depart="183.00" from="-1799" to="-353"/>
    <trip id="56" depart="185.00" from="-1799" to="-353"/>
    <trip id="57" depart="185.00" from="353" to="1799"/>
    <trip id="58" depart="186.00" from="353" to="1799"/>
    <trip id="59" depart="186.00" from="353" to="1799"/>
    <trip id="60" depart="187.00" from="353" to="1799"/>
    <trip id="61" depart="189.00" from="-1799" to="-353"/>
    <trip id="62" depart="191.00" from="353" to="1799"/>
    <trip id="63" depart="196.00" from="353" to="1799"/>
    <trip id="64" depart="199.00" from="353" to="1799"/>
    <trip id="65" depart="203.00" from="-1799" to="-353"/>
    <trip id="66" depart="207.00" from="353" to="1799"/>
    <trip id="67" depart="208.00" from="353" to="1799"/>
    <trip id="68" depart="209.00" from="353" to="1799"/>
    <trip id="69" depart="210.00" from="-1799" to="-353"/>
    <trip id="70" depart="211.00" from="-1799" to="-353"/>
    <trip id="71" depart="216.00" from="353" to="1799"/>
    <trip id="72" depart="224.00" from="353" to="1799"/>
    <trip id="73" depart="225.00" from="353" to="1799"/>
    <trip id="74" depart="229.00" from="353" to="1799"/>
    <trip id="75" depart="230.00" from="-1799" to="-353"/>
    <trip id="76" depart="231.00" from="353" to="1799"/>
    <trip id="77" depart="233.00" from="353" to="1799"/>
    <trip id="78" depart="237.00" from="-1799" to="-353"/>
    <trip id="79" depart="239.00" from="353" to="1799"/>
    <trip id="80" depart="247.00" from="-1799" to="-353"/>
    <trip id="81" depart="251.00" from="353" to="1799"/>
    <trip id="82" depart="253.00" from="-1799" to="-353"/>
    <trip id="83" depart="254.00" from="353" to="1799"/>
    <trip id="84" depart="254.00" from="-1799" to="-353"/>
    <trip id="85" depart="254.00" from="-1799" to="-353"/>
    <trip id="86" depart="258.00" from="-1799" to="-353"/>
    <trip id="87" depart="259.00" from="353" to="1799"/>
    <trip id="88" depart="264.00" from="353" to="1799"/>
    <trip id="89" depart="268.00" from="353" to="1799"/>
    <trip id="90" depart="270.00" from="-1799" to="-353"/>
    <trip id="91" depart="271.00" from="353" to="1799"/>
    <trip id="92" depart="271.00" from="353" to="1799"/>
    <trip id="93" depart="272.00" from="353" to="1799"/>
    <trip id="94" depart="272.00" from="-1799" to="-353"/>
    <trip id="95" depart="274.00" from="-1799" to="-353"/>
    <trip id="96" depart="277.00" from="-1799" to="-353"/>
    <trip id="97" depart="281.00" from="-1799" to="-353"/>
    <trip id="98" depart="291.00" from="-1799" to="-353"/>
    <trip id="99" depart="295.00" from="353" to="1799"/>
    <trip id="100" depart="299.00" from="-1799" to="-353"/>
    <trip id="101" depart="299.00" from="-1799" to="-353"/>
    <trip id="102" depart="300.00" from="-1799" to="-353"/>
    <trip id="103" depart="306.00" from="353" to="1799"/>
    <trip id="104" depart="314.00" from="-1799" to="-353"/>
    <trip id="105" depart="315.00" from="353" to="1799"/>
    <trip id="106" depart="320.00" from="-1799" to="-353"/>
    <trip id="107" depart="320.00" from="-1799" to="-353"/>
    <trip id="108" depart="323.00" from="353" to="1799"/>
    <trip id="109" depart="325.00" from="-1799" to="-353"/>
    <trip id="110" depart="330.00" from="-1799" to="-353"/>
    <trip id="111" depart="331.00" from="353" to="1799"/>
    <trip id="112" depart="334.00" from="353" to="1799"/>
    <trip id="113" depart="334.00" from="-1799" to="-353"/>
    <trip id="114" depart="335.00" from="-1799" to="-353"/>
    <trip id="115" depart="339.00" from="353" to="1799"/>
    <trip id="116" depart="342.00" from="-1799" to="-353"/>
    <trip id="117" depart="342.00" from="353" to="1799"/>
    <trip id="118" depart="347.00" from="353" to="1799"/>
    <trip id="119" depart="350.00" from="-1799" to="-353"/>
    <trip id="120" depart="351.00" from="-1799" to="-353"/>
    <trip id="121" depart="355.00" from="-1799" to="-353"/>
    <trip id="122" depart="356.00" from="353" to="1799"/>
    <trip id="123" depart="357.00" from="-1799" to="-353"/>
    <trip id="124" depart="365.00" from="353" to="1799"/>
    <trip id="125" depart="366.00" from="353" to="1799"/>
    <trip id="126" depart="367.00" from="353" to="1799"/>
    <trip id="127" depart="372.00" from="353" to="1799"/>
    <trip id="128" depart="373.00" from="353" to="1799"/>
    <trip id="129" depart="374.00" from="353" to="1799"/>
    <trip id="130" depart="378.00" from="353" to="1799"/>
    <trip id="131" depart="383.00" from="-1799" to="-353"/>
    <trip id="132" depart="385.00" from="-1799" to="-353"/>
    <trip id="133" depart="389.00" from="-1799" to="-353"/>
    <trip id="134" depart="399.00" from="353" to="1799"/>
    <trip id="135" depart="401.00" from="353" to="1799"/>
    <trip id="136" depart="406.00" from="353" to="1799"/>
    <trip id="137" depart="409.00" from="-1799" to="-353"/>
    <trip id="138" depart="409.00" from="353" to="1799"/>
    <trip id="139" depart="414.00" from="353" to="1799"/>
    <trip id="140" depart="416.00" from="353" to="1799"/>
    <trip id="141" depart="417.00" from="-1799" to="-353"/>
    <trip id="142" depart="424.00" from="-1799" to="-353"/>
    <trip id="143" depart="429.00" from="-1799" to="-353"/>
    <trip id="144" depart="430.00" from="-1799" to="-353"/>
    <trip id="145" depart="431.00" from="353" to="1799"/>
    <trip id="146" depart="441.00" from="-1799" to="-353"/>
    <trip id="147" depart="442.00" from="-1799" to="-353"/>
    <trip id="148" depart="443.00" from="-1799" to="-353"/>
    <trip id="149" depart="444.00" from="353" to="1799"/>
    <trip id="150" depart="445.00" from="-1799" to="-353"/>
    <trip id="151" depart="446.00" from="353" to="1799"/>
    <trip id="152" depart="446.00" from="353" to="1799"/>
    <trip id="153" depart="451.00" from="-1799" to="-353"/>
    <trip id="154" depart="453.00" from="353" to="1799"/>
    <trip id="155" depart="454.00" from="-1799" to="-353"/>
    <trip id="156" depart="467.00" from="-1799" to="-353"/>
    <trip id="157" depart="468.00" from="353" to="1799"/>
    <trip id="158" depart="471.00" from="353" to="1799"/>
    <trip id="159" depart="474.00" from="353" to="1799"/>
    <trip id="160" depart="474.00" from="353" to="1799"/>
    <trip id="161" depart="480.00" from="-1799" to="-353"/>
    <trip id="162" depart="480.00" from="-1799" to="-353"/>
    <trip id="163" depart="482.00" from="353" to="1799"/>
    <trip id="164" depart="484.00" from="353" to="1799"/>
    <trip id="165" depart="486.00" from="-1799" to="-353"/>
    <trip id="166" depart="487.00" from="-1799" to="-353"/>
    <trip id="167" depart="488.00" from="-1799" to="-353"/>
    <trip id="168" depart="491.00" from="-1799" to="-353"/>
    <trip id="169" depart="494.00" from="-1799" to="-353"/>
    <trip id="170" depart="496.00" from="353" to="1799"/>
    <trip id="171" depart="499.00" from="-1799" to="-353"/>
    <trip id="172" depart="499.00" from="-1799" to="-353"/>
    <trip id="173" depart="502.00" from="-1799" to="-353"/>
    <trip id="174" depart="507.00" from="-1799" to="-353"/>
    <trip id="175" depart="508.00" from="-1799" to="-353"/>
    <trip id="176" depart="516.00" from="-1799" to="-353"/>
    <trip id="177" depart="519.00" from="-1799" to="-353"/>
    <trip id="178" depart="520.00" from="353" to="1799"/>
    <trip id="179" depart="521.00" from="353" to="1799"/>
    <trip id="180" depart="523.00" from="-1799" to="-353"/>
    <trip id="181" depart="526.00" from="353" to="1799"/>
    <trip id="182" depart="529.00" from="353" to="1799"/>
    <trip id="183" depart="537.00" from="353" to="1799"/>
    <trip id="184" depart="543.00" from="353" to="1799"/>
    <trip id="185" depart="545.00" from="353" to="1799"/>
    <trip id="186" depart="549.00" from="-1799" to="-353"/>
    <trip id="187" depart="550.00" from="353" to="1799"/>
    <trip id="188" depart="551.00" from="353" to="1799"/>
    <trip id="189" depart="558.00" from="-1799" to="-353"/>
    <trip id="190" depart="560.00" from="-1799" to="-353"/>
    <trip id="191" depart="562.00" from="-1799" to="-353"/>
    <trip id="192" depart="565.00" from="-1799" to="-353"/>
    <trip id="193" depart="567.00" from="-1799" to="-353"/>
    <trip id="194" depart="571.00" from="-1799" to="-353"/>
    <trip id="195" depart="572.00" from="-1799" to="-353"/>
    <trip id="196" depart="573.00" from="-1799" to="-353"/>
    <trip id="197" depart="574.00" from="-1799" to="-353"/>
    <trip id="198" depart="575.00" from="353" to="1799"/>
    <trip id="199" depart="578.00" from="353" to="1799"/>
    <trip id="200" depart="581.00" from="-1799" to="-353"/>
    <trip id="201" depart="582.00" from="-1799" to="-353"/>
    <trip id="202" depart="584.00" from="353" to="1799"/>
    <trip id="203" depart="585.00" from="353" to="1799"/>
    <trip id="204" depart="592.00" from="353" to="1799"/>
    <trip id="205" depart="595.00" from="353" to="1799"/>
    <trip id="206" depart="596.00" from="353" to="1799"/>
    <trip id="207" depart="596.00" from="-1799" to="-353"/>
    <trip id="208" depart="599.00" from="353" to="1799"/>
    <trip id="209" depart="599.00" from="-1799" to="-353"/>
    <trip id="210" depart="600.00" from="353" to="1799"/>
    <trip id="211" depart="602.00" from="-1799" to="-353"/>
    <trip id="212" depart="602.00" from="-1799" to="-353"/>
    <trip id="213" depart="603.00" from="353" to="1799"/>
    <trip id="214" depart="606.00" from="353" to="1799"/>
    <trip id="215" depart="607.00" from="353" to="1799"/>
    <trip id="216" depart="611.00" from="-1799" to="-353"/>
    <trip id="217" depart="616.00" from="-1799" to="-353"/>
    <trip id="218" depart="619.00" from="-1799" to="-353"/>
    <trip id="219" depart="619.00" from="-1799" to="-353"/>
    <trip id="220" depart="622.00" from="-1799" to="-353"/>
    <trip id="221" depart="623.00" from="353" to="1799"/>
    <trip id="222" depart="627.00" from="-1799" to="-353"/>
    <trip id="223" depart="631.00" from="353" to="1799"/>
    <trip id="224" depart="631.00" from="-1799" to="-353"/>
    <trip id="225" depart="632.00" from="-1799" to="-353"/>
    <trip id="226" depart="636.00" from="353" to="1799"/>
    <trip id="227" depart="647.00" from="-1799" to="-353"/>
    <trip id="228" depart="648.00" from="353" to="1799"/>
    <trip id="229" depart="648.00" from="-1799" to="-353"/>
    <trip id="230" depart="651.00" from="-1799" to="-353"/>
    <trip id="231" depart="655.00" from="-1799" to="-353"/>
    <trip id="232" depart="656.00" from="353" to="1799"/>
    <trip id="233" depart="658.00" from="-1799" to="-353"/>
    <trip id="234" depart="664.00" from="353" to="1799"/>
    <trip id="235" depart="666.00" from="353" to="1799"/>
    <trip id="236" depart="672.00" from="-1799" to="-353"/>
    <trip id="237" depart="675.00" from="-1799" to="-353"/>
    <trip id="238" depart="682.00" from="-1799" to="-353"/>
    <trip id="239" depart="683.00" from="353" to="1799"/>
    <trip id="240" depart="683.00" from="-1799" to="-353"/>
    <trip id="241" depart="685.00" from="353" to="1799"/>
    <trip id="242" depart="688.00" from="353" to="1799"/>
    <trip id="243" depart="694.00" from="-1799" to="-353"/>
    <trip id="244" depart="695.00" from="353" to="1799"/>
    <trip id="245" depart="696.00" from="-1799" to="-353"/>
    <trip id="246" depart="698.00" from="353" to="1799"/>
    <trip id="247" depart="699.00" from="-1799" to="-353"/>
    <trip id="248" depart="700.00" from="353" to="1799"/>
    <trip id="249" depart="700.00" from="353" to="1799"/>
    <trip id="250" depart="702.00" from="353" to="1799"/>
    <trip id="251" depart="702.00" from="-1799" to="-353"/>
    <trip id="252" depart="707.00" from="353" to="1799"/>
    <trip id="253" depart="708.00" from="353" to="1799"/>
    <trip id="254" depart="711.00" from="-1799" to="-353"/>
    <trip id="255" depart="714.00" from="353" to="1799"/>
    <trip id="256" depart="717.00" from="353" to="1799"/>
    <trip id="257" depart="717.00" from="353" to="1799"/>
    <trip id="258" depart="723.00" from="-1799" to="-353"/>
    <trip id="259" depart="726.00" from="353" to="1799"/>
    <trip id="260" depart="728.00" from="353" to="1799"/>
    <trip id="261" depart="735.00" from="353" to="1799"/>
    <trip id="262" depart="741.00" from="353" to="1799"/>
    <trip id="263" depart="746.00" from="353" to="1799"/>
    <trip id="264" depart="747.00" from="-1799" to="-353"/>
    <trip id="265" depart="751.00" from="353" to="1799"/>
    <trip id="266" depart="756.00" from="-1799" to="-353"/>
    <trip id="267" depart="761.00" from="353" to="1799"/>
    <trip id="268" depart="762.00" from="353" to="1799"/>
    <trip id="269" depart="765.00" from="353" to="1799"/>
    <trip id="270" depart="767.00" from="353" to="1799"/>
    <trip id="271" depart="768.00" from="353" to="1799"/>
    <trip id="272" depart="776.00" from="353" to="1799"/>
    <trip id="273" depart="783.00" from="-1799" to="-353"/>
    <trip id="274" depart="790.00" from="-1799" to="-353"/>
    <trip id="275" depart="793.00" from="-1799" to="-353"/>
    <trip id="276" depart="794.00" from="353" to="1799"/>
    <trip id="277" depart="799.00" from="353" to="1799"/>
    <trip id="278" depart="802.00" from="-1799" to="-353"/>
    <trip id="279" depart="816.00" from="-1799" to="-353"/>
    <trip id="280" depart="821.00" from="353" to="1799"/>
    <trip id="281" depart="824.00" from="-1799" to="-353"/>
    <trip id="282" depart="826.00" from="353" to="1799"/>
    <trip id="283" depart="828.00" from="-1799" to="-353"/>
    <trip id="284" depart="829.00" from="353" to="1799"/>
    <trip id="285" depart="830.00" from="-1799" to="-353"/>
    <trip id="286" depart="831.00" from="-1799" to="-353"/>
    <trip id="287" depart="835.00" from="353" to="1799"/>
    <trip id="288" depart="836.00" from="-1799" to="-353"/>
    <trip id="289" depart="837.00" from="353" to="1799"/>
    <trip id="290" depart="839.00" from="353" to="1799"/>
    <trip id="291" depart="843.00" from="-1799" to="-353"/>
    <trip id="292" depart="844.00" from="-1799" to="-353"/>
    <trip id="293" depart="848.00" from="353" to="1799"/>
    <trip id="294" depart="849.00" from="-1799" to="-353"/>
    <trip id="295" depart="850.00" from="-1799" to="-353"/>
    <trip id="296" depart="854.00" from="-1799" to="-353"/>
    <trip id="297" depart="854.00" from="-1799" to="-353"/>
    <trip id="298" depart="856.00" from="353" to="1799"/>
    <trip id="299" depart="857.00" from="-1799" to="-353"/>
    <trip id="300" depart="858.00" from="-1799" to="-353"/>
    <trip id="301" depart="860.00" from="353" to="1799"/>
    <trip id="302" depart="860.00" from="353" to="1799"/>
    <trip id="303" depart="861.00" from="-1799" to="-353"/>
    <trip id="304" depart="862.00" from="-1799" to="-353"/>
    <trip id="305" depart="863.00" from="353" to="1799"/>
    <trip id="306" depart="865.00" from="-1799" to="-353"/>
    <trip id="307" depart="873.00" from="353" to="1799"/>
    <trip id="308" depart="876.00" from="-1799" to="-353"/>
    <trip id="309" depart="880.00" from="353" to="1799"/>
    <trip id="310" depart="886.00" from="-1799" to="-353"/>
    <trip id="311" depart="888.00" from="353" to="1799"/>
    <trip id="312" depart="890.00" from="-1799" to="-353"/>
    <trip id="313" depart="893.00" from="353" to="1799"/>
    <trip id="314" depart="894.00" from="353" to="1799"/>
    <trip id="315" depart="898.00" from="353" to="1799"/>
    <trip id="316" depart="898.00" from="-1799" to="-353"/>
    <trip id="317" depart="902.00" from="-1799" to="-353"/>
    <trip id="318" depart="904.00" from="-1799" to="-353"/>
    <trip id="319" depart="904.00" from="353" to="1799"/>
    <trip id="320" depart="906.00" from="353" to="1799"/>
    <trip id="321" depart="906.00" from="353" to="1799"/>
    <trip id="322" depart="909.00" from="-1799" to="-353"/>
    <trip id="323" depart="910.00" from="353" to="1799"/>
    <trip id="324" depart="912.00" from="-1799" to="-353"/>
    <trip id="325" depart="913.00" from="353" to="1799"/>
    <trip id="326" depart="915.00" from="353" to="1799"/>
    <trip id="327" depart="920.00" from="-1799" to="-353"/>
    <trip id="328" depart="924.00" from="-1799" to="-353"/>
    <trip id="329" depart="931.00" from="353" to="1799"/>
    <trip id="330" depart="932.00" from="-1799" to="-353"/>
    <trip id="331" depart="938.00" from="-1799" to="-353"/>
    <trip id="332" depart="939.00" from="-1799" to="-353"/>
    <trip id="333" depart="947.00" from="-1799" to="-353"/>
    <trip id="334" depart="948.00" from="-1799" to="-353"/>
    <trip id="335" depart="951.00" from="-1799" to="-353"/>
    <trip id="336" depart="952.00" from="-1799" to="-353"/>
    <trip id="337" depart="952.00" from="353" to="1799"/>
    <trip id="338" depart="957.00" from="-1799" to="-353"/>
    <trip id="339" depart="960.00" from="-1799" to="-353"/>
    <trip id="340" depart="962.00" from="-1799" to="-353"/>
    <trip id="341" depart="966.00" from="-1799" to="-353"/>
    <trip id="342" depart="967.00" from="-1799" to="-353"/>
    <trip id="343" depart="971.00" from="353" to="1799"/>
    <trip id="344" depart="971.00" from="353" to="1799"/>
    <trip id="345" depart="971.00" from="353" to="1799"/>
    <trip id="346" depart="973.00" from="-1799" to="-353"/>
    <trip id="347" depart="974.00" from="353" to="1799"/>
    <trip id="348" depart="975.00" from="353" to="1799"/>
    <trip id="349" depart="983.00" from="353" to="1799"/>
    <trip id="350" depart="983.00" from="-1799" to="-353"/>
    <trip id="351" depart="984.00" from="353" to="1799"/>
    <trip id="352" depart="986.00" from="353" to="1799"/>
    <trip id="353" depart="987.00" from="-1799" to="-353"/>
    <trip id="354" depart="991.00" from="-1799" to="-353"/>
    <trip id="355" depart="992.00" from="353" to="1799"/>
    <trip id="356" depart="994.00" from="353" to="1799"/>
    <trip id="357" depart="995.00" from="-1799" to="-353"/>
    <trip id="358" depart="996.00" from="-1799" to="-353"/>
    <trip id="359" depart="996.00" from="353" to="1799"/>
    <trip id="360" depart="1011.00" from="-1799" to="-353"/>
    <trip id="361" depart="1014.00" from="353" to="1799"/>
    <trip id="362" depart="1014.00" from="-1799" to="-353"/>
    <trip id="363" depart="1016.00" from="-1799" to="-353"/>
    <trip id="364" depart="1016.00" from="-1799" to="-353"/>
    <trip id="365" depart="1021.00" from="-1799" to="-353"/>
    <trip id="366" depart="1022.00" from="-1799" to="-353"/>
    <trip id="367" depart="1023.00" from="-1799" to="-353"/>
    <trip id="368" depart="1023.00" from="353" to="1799"/>
    <trip id="369" depart="1024.00" from="353" to="1799"/>
    <trip id="370" depart="1025.00" from="353" to="1799"/>
    <trip id="371" depart="1029.00" from="-1799" to="-353"/>
    <trip id="372" depart="1029.00" from="353" to="1799"/>
    <trip id="373" depart="1030.00" from="353" to="1799"/>
    <trip id="374" depart="1036.00" from="-1799" to="-353"/>
    <trip id="375" depart="1041.00" from="-1799" to="-353"/>
    <trip id="376" depart="1042.00" from="353" to="1799"/>
    <trip id="377" depart="1051.00" from="353" to="1799"/>
    <trip id="378" depart="1052.00" from="-1799" to="-353"/>
    <trip id="379" depart="1056.00" from="353" to="1799"/>
    <trip id="380" depart="1061.00" from="-1799" to="-353"/>
    <trip id="381" depart="1061.00" from="353" to="1799"/>
    <trip id="382" depart="1062.00" from="-1799" to="-353"/>
    <trip id="383" depart="1065.00" from="353" to="1799"/>
    <trip id="384" depart="1066.00" from="-1799" to="-353"/>
    <trip id="385" depart="1066.00" from="353" to="1799"/>
    <trip id="386" depart="1068.00" from="353" to="1799"/>
    <trip id="387" depart="1069.00" from="353" to="1799"/>
    <trip id="388" depart="1073.00" from="353" to="1799"/>
    <trip id="389" depart="1075.00" from="-1799" to="-353"/>
    <trip id="390" depart="1076.00" from="353" to="1799"/>
    <trip id="391" depart="1086.00" from="-1799" to="-353"/>
    <trip id="392" depart="1087.00" from="-1799" to="-353"/>
    <trip id="393" depart="1089.00" from="-1799" to="-353"/>
    <trip id="394" depart="1090.00" from="-1799" to="-353"/>
    <trip id="395" depart="1091.00" from="-1799" to="-353"/>
    <trip id="396" depart="1095.00" from="-1799" to="-353"/>
    <trip id="397" depart="1099.00" from="-1799" to="-353"/>
    <trip id="398" depart="1103.00" from="353" to="1799"/>
    <trip id="399" depart="1107.00" from="-1799" to="-353"/>
    <trip id="400" depart="1121.00" from="-1799" to="-353"/>
    <trip id="401" depart="1123.00" from="353" to="1799"/>
    <trip id="402" depart="1124.00" from="-1799" to="-353"/>
    <trip id="403" depart="1124.00" from="353" to="1799"/>
    <trip id="404" depart="1126.00" from="-1799" to="-353"/>
    <trip id="405" depart="1135.00" from="353" to="1799"/>
    <trip id="406" depart="1137.00" from="-1799" to="-353"/>
    <trip id="407" depart="1137.00" from="353" to="1799"/>
    <trip id="408" depart="1139.00" from="-1799" to="-353"/>
    <trip id="409" depart="1141.00" from="353" to="1799"/>
    <trip id="410" depart="1142.00" from="-1799" to="-353"/>
    <trip id="411" depart="1148.00" from="353" to="1799"/>
    <trip id="412" depart="1154.00" from="-1799" to="-353"/>
    <trip id="413" depart="1158.00" from="353" to="1799"/>
    <trip id="414" depart="1159.00" from="353" to="1799"/>
    <trip id="415" depart="1164.00" from="-1799" to="-353"/>
    <trip id="416" depart="1165.00" from="353" to="1799"/>
    <trip id="417" depart="1165.00" from="-1799" to="-353"/>
    <trip id="418" depart="1174.00" from="-1799" to="-353"/>
    <trip id="419" depart="1178.00" from="-1799" to="-353"/>
    <trip id="420" depart="1178.00" from="-1799" to="-353"/>
    <trip id="421" depart="1185.00" from="353" to="1799"/>
    <trip id="422" depart="1186.00" from="353" to="1799"/>
    <trip id="423" depart="1191.00" from="-1799" to="-353"/>
    <trip id="424" depart="1193.00" from="353" to="1799"/>
    <trip id="425" depart="1194.00" from="-1799" to="-353"/>
    <trip id="426" depart="1198.00" from="-1799" to="-353"/>
    <trip id="427" depart="1207.00" from="-1799" to="-353"/>
    <trip id="428" depart="1216.00" from="-1799" to="-353"/>
    <trip id="429" depart="1217.00" from="353" to="1799"/>
    <trip id="430" depart="1219.00" from="353" to="1799"/>
    <trip id="431" depart="1226.00" from="353" to="1799"/>
    <trip id="432" depart="1226.00" from="353" to="1799"/>
    <trip id="433" depart="1227.00" from="-1799" to="-353"/>
    <trip id="434" depart="1229.00" from="353" to="1799"/>
    <trip id="435" depart="1231.00" from="353" to="1799"/>
    <trip id="436" depart="1234.00" from="-1799" to="-353"/>
    <trip id="437" depart="1236.00" from="-1799" to="-353"/>
    <trip id="438" depart="1236.00" from="-1799" to="-353"/>
    <trip id="439" depart="1237.00" from="353" to="1799"/>
    <trip id="440" depart="1238.00" from="353" to="1799"/>
    <trip id="441" depart="1240.00" from="-1799" to="-353"/>
    <trip id="442" depart="1243.00" from="353" to="1799"/>
    <trip id="443" depart="1243.00" from="-1799" to="-353"/>
    <trip id="444" depart="1245.00" from="-1799" to="-353"/>
    <trip id="445" depart="1245.00" from="-1799" to="-353"/>
    <trip id="446" depart="1245.00" from="-1799" to="-353"/>
    <trip id="447" depart="1246.00" from="-1799" to="-353"/>
    <trip id="448" depart="1249.00" from="353" to="1799"/>
    <trip id="449" depart="1249.00" from="-1799" to="-353"/>
    <trip id="450" depart="1250.00" from="353" to="1799"/>
    <trip id="451" depart="1251.00" from="353" to="1799"/>
    <trip id="452" depart="1252.00" from="-1799" to="-353"/>
    <trip id="453" depart="1255.00" from="-1799" to="-353"/>
    <trip id="454" depart="1257.00" from="353" to="1799"/>
    <trip id="455" depart="1261.00" from="-1799" to="-353"/>
    <trip id="456" depart="1262.00" from="-1799" to="-353"/>
    <trip id="457" depart="1264.00" from="353" to="1799"/>
    <trip id="458" depart="1264.00" from="353" to="1799"/>
    <trip id="459" depart="1264.00" from="-1799" to="-353"/>
    <trip id="460" depart="1272.00" from="353" to="1799"/>
    <trip id="461" depart="1272.00" from="353" to="1799"/>
    <trip id="462" depart="1273.00" from="353" to="1799"/>
    <trip id="463" depart="1273.00" from="353" to="1799"/>
    <trip id="464" depart="1274.00" from="353" to="1799"/>
    <trip id="465" depart="1275.00" from="-1799" to="-353"/>
    <trip id="466" depart="1278.00" from="-1799" to="-353"/>
    <trip id="467" depart="1278.00" from="353" to="1799"/>
    <trip id="468" depart="1282.00" from="353" to="1799"/>
    <trip id="469" depart="1284.00" from="-1799" to="-353"/>
    <trip id="470" depart="1285.00" from="-1799" to="-353"/>
    <trip id="471" depart="1286.00" from="-1799" to="-353"/>
    <trip id="472" depart="1286.00" from="-1799" to="-353"/>
    <trip id="473" depart="1289.00" from="-1799" to="-353"/>
    <trip id="474" depart="1295.00" from="-1799" to="-353"/>
    <trip id="475" depart="1299.00" from="-1799" to="-353"/>
    <trip id="476" depart="1300.00" from="-1799" to="-353"/>
    <trip id="477" depart="1301.00" from="-1799" to="-353"/>
    <trip id="478" depart="1303.00" from="353" to="1799"/>
    <trip id="479" depart="1306.00" from="353" to="1799"/>
    <trip id="480" depart="1308.00" from="353" to="1799"/>
    <trip id="481" depart="1308.00" from="-1799" to="-353"/>