<?xml version="1.0" encoding="UTF-8"?>

<!-- generated on 2025-02-27 21:45:15 by Eclipse SUMO netedit Version 1.20.0
<configuration xmlns:xsi="http://www.w3.org/2001/XMLSchema-instance" xsi:noNamespaceSchemaLocation="http://sumo.dlr.de/xsd/neteditConfiguration.xsd">

    <input>
        <sumo-net-file value="/Users/rohitbokade/Desktop/single/single_right.net.xml"/>
    </input>

    <output>
        <output-file value="/Users/rohitbokade/Desktop/single/single_right.net.xml"/>
    </output>

    <processing>
        <geometry.min-radius.fix.railways value="false"/>
        <geometry.max-grade.fix value="false"/>
        <offset.disable-normalization value="true"/>
        <lefthand value="0"/>
    </processing>

    <junctions>
        <no-turnarounds value="true"/>
        <junctions.corner-detail value="5"/>
        <junctions.limit-turn-speed value="5.50"/>
        <rectangular-lane-cut value="0"/>
    </junctions>

    <pedestrian>
        <walkingareas value="0"/>
    </pedestrian>

</configuration>
-->

<net version="1.20" junctionCornerDetail="5" limitTurnSpeed="5.50" xmlns:xsi="http://www.w3.org/2001/XMLSchema-instance" xsi:noNamespaceSchemaLocation="http://sumo.dlr.de/xsd/net_file.xsd">

    <location netOffset="2400.00,2800.00" convBoundary="1600.00,2800.00,1800.00,3200.00" origBoundary="-2400.00,-2800.00,2200.00,2000.00" projParameter="!"/>

    <edge id=":1438_0" function="internal">
        <lane id=":1438_0_0" index="0" speed="3.65" length="4.67" shape="1600.00,3001.60 1598.80,3000.80 1598.40,3000.00 1598.80,2999.20 1600.00,2998.40"/>
    </edge>
    <edge id=":469_0" function="internal">
        <lane id=":469_0_0" index="0" speed="3.65" length="4.67" shape="1801.60,3200.00 1800.80,3201.20 1800.00,3201.60 1799.20,3201.20 1798.40,3200.00"/>
    </edge>
    <edge id=":785_0" function="internal">
        <lane id=":785_0_0" index="0" speed="6.51" length="9.03" shape="1795.20,3010.40 1794.85,3007.95 1793.80,3006.20 1792.05,3005.15 1789.60,3004.80"/>
    </edge>
    <edge id=":785_1" function="internal">
        <lane id=":785_1_0" index="0" speed="13.89" length="20.80" shape="1795.20,3010.40 1795.20,2989.60"/>
        <lane id=":785_1_1" index="1" speed="13.89" length="20.80" shape="1798.40,3010.40 1798.40,2989.60"/>
    </edge>
    <edge id=":785_3" function="internal">
        <lane id=":785_3_0" index="0" speed="3.65" length="1.44" shape="1798.40,3010.40 1799.20,3009.20"/>
    </edge>
    <edge id=":785_11" function="internal">
        <lane id=":785_11_0" index="0" speed="3.65" length="3.23" shape="1799.20,3009.20 1800.00,3008.80 1800.80,3009.20 1801.60,3010.40"/>
    </edge>
    <edge id=":785_4" function="internal">
        <lane id=":785_4_0" index="0" speed="13.89" length="20.80" shape="1804.80,2989.60 1804.80,3010.40"/>
        <lane id=":785_4_1" index="1" speed="13.89" length="20.80" shape="1801.60,2989.60 1801.60,3010.40"/>
    </edge>
    <edge id=":785_6" function="internal">
        <lane id=":785_6_0" index="0" speed="9.26" length="5.01" shape="1801.60,2989.60 1800.89,2994.56"/>
    </edge>
    <edge id=":785_7" function="internal">
        <lane id=":785_7_0" index="0" speed="3.65" length="1.44" shape="1801.60,2989.60 1800.80,2990.80"/>
    </edge>
    <edge id=":785_12" function="internal">
        <lane id=":785_12_0" index="0" speed="9.26" length="14.34" shape="1800.89,2994.56 1800.85,2994.85 1798.60,2998.60 1794.85,3000.85 1789.60,3001.60"/>
    </edge>
    <edge id=":785_13" function="internal">
        <lane id=":785_13_0" index="0" speed="3.65" length="3.23" shape="1800.80,2990.80 1800.00,2991.20 1799.20,2990.80 1798.40,2989.60"/>
    </edge>
    <edge id=":785_8" function="internal">
        <lane id=":785_8_0" index="0" speed="6.51" length="9.03" shape="1789.60,2995.20 1792.05,2994.85 1793.80,2993.80 1794.85,2992.05 1795.20,2989.60"/>
    </edge>
    <edge id=":785_9" function="internal">
        <lane id=":785_9_0" index="0" speed="9.26" length="19.35" shape="1789.60,2998.40 1794.85,2999.15 1798.60,3001.40 1800.85,3005.15 1801.60,3010.40"/>
    </edge>
    <edge id=":785_10" function="internal">
        <lane id=":785_10_0" index="0" speed="3.65" length="4.67" shape="1789.60,2998.40 1790.80,2999.20 1791.20,3000.00 1790.80,3000.80 1789.60,3001.60"/>
    </edge>

    <edge id="-1072" from="1071" to="785" priority="-1">
        <lane id="-1072_0" index="0" speed="13.89" length="189.60" shape="1804.80,2800.00 1804.80,2989.60"/>
        <lane id="-1072_1" index="1" speed="13.89" length="189.60" shape="1801.60,2800.00 1801.60,2989.60"/>
    </edge>
    <edge id="-1439" from="1438" to="785" priority="-1">
        <lane id="-1439_0" index="0" speed="13.89" length="189.60" shape="1600.00,2995.20 1789.60,2995.20"/>
        <lane id="-1439_1" index="1" speed="13.89" length="189.60" shape="1600.00,2998.40 1789.60,2998.40"/>
    </edge>
    <edge id="-786" from="785" to="469" priority="-1">
        <lane id="-786_0" index="0" speed="13.89" length="189.60" shape="1804.80,3010.40 1804.80,3200.00"/>
        <lane id="-786_1" index="1" speed="13.89" length="189.60" shape="1801.60,3010.40 1801.60,3200.00"/>
    </edge>
    <edge id="1072" from="785" to="1071" priority="-1">
        <lane id="1072_0" index="0" speed="13.89" length="189.60" shape="1795.20,2989.60 1795.20,2800.00"/>
        <lane id="1072_1" index="1" speed="13.89" length="189.60" shape="1798.40,2989.60 1798.40,2800.00"/>
    </edge>
    <edge id="1439" from="785" to="1438" priority="-1">
        <lane id="1439_0" index="0" speed="13.89" length="189.60" shape="1789.60,3004.80 1600.00,3004.80"/>
        <lane id="1439_1" index="1" speed="13.89" length="189.60" shape="1789.60,3001.60 1600.00,3001.60"/>
    </edge>
    <edge id="786" from="469" to="785" priority="-1">
        <lane id="786_0" index="0" speed="13.89" length="189.60" shape="1795.20,3200.00 1795.20,3010.40"/>
        <lane id="786_1" index="1" speed="13.89" length="189.60" shape="1798.40,3200.00 1798.40,3010.40"/>
    </edge>

    <tlLogic id="785" type="static" programID="0" offset="0">
        <phase duration="42" state="GGGgGGggrrr"/>
        <phase duration="3"  state="yyyyyyyyrrr"/>
        <phase duration="42" state="rrrrrrrrGgg"/>
        <phase duration="3"  state="rrrrrrrryyy"/>
    </tlLogic>

    <junction id="1071" type="dead_end" x="1800.00" y="2800.00" incLanes="1072_0 1072_1" intLanes="" shape="1800.00,2800.00 1793.60,2800.00 1800.00,2800.00"/>
    <junction id="1438" type="priority" x="1600.00" y="3000.00" incLanes="1439_0 1439_1" intLanes=":1438_0_0" shape="1600.00,3000.00 1600.00,3006.40 1600.00,3000.00">
        <request index="0" response="0" foes="0" cont="0"/>
    </junction>
    <junction id="469" type="priority" x="1800.00" y="3200.00" incLanes="-786_0 -786_1" intLanes=":469_0_0" shape="1800.00,3200.00 1806.40,3200.00 1800.00,3200.00">
        <request index="0" response="0" foes="0" cont="0"/>
    </junction>
    <junction id="785" type="traffic_light" x="1800.00" y="3000.00" incLanes="786_0 786_1 -1072_0 -1072_1 -1439_0 -1439_1" intLanes=":785_0_0 :785_1_0 :785_1_1 :785_11_0 :785_4_0 :785_4_1 :785_12_0 :785_13_0 :785_8_0 :785_9_0 :785_10_0" shape="1793.60,3010.40 1806.40,3010.40 1806.40,2989.60 1793.60,2989.60 1793.16,2991.82 1792.60,2992.60 1791.82,2993.16 1790.82,2993.49 1789.60,2993.60 1789.60,3006.40 1791.82,3006.84 1792.60,3007.40 1793.16,3008.18 1793.49,3009.18">
        <request index="0"  response="00000000000" foes="00000000000" cont="0"/>
        <request index="1"  response="00000000000" foes="01111000000" cont="0"/>
        <request index="2"  response="00000000000" foes="01111000000" cont="0"/>
        <request index="3"  response="01000110000" foes="01000110000" cont="1"/>
        <request index="4"  response="00000000000" foes="01000001000" cont="0"/>
        <request index="5"  response="00000000000" foes="01000001000" cont="0"/>
        <request index="6"  response="00000000110" foes="11000000110" cont="1"/>
        <request index="7"  response="00000000110" foes="00000000110" cont="1"/>
        <request index="8"  response="00000000110" foes="00000000110" cont="0"/>
        <request index="9"  response="00001110110" foes="00001111110" cont="0"/>
        <request index="10" response="00001000000" foes="00001000000" cont="0"/>
    </junction>

    <junction id=":785_11_0" type="internal" x="1799.20" y="3009.20" incLanes=":785_3_0 -1072_0 -1072_1 -1439_1" intLanes=":785_4_0 :785_4_1 :785_9_0"/>
    <junction id=":785_12_0" type="internal" x="1800.89" y="2994.56" incLanes=":785_6_0 786_0 786_1" intLanes=":785_0_0 :785_1_0 :785_1_1 :785_9_0 :785_10_0"/>
    <junction id=":785_13_0" type="internal" x="1800.80" y="2990.80" incLanes=":785_7_0 -1439_0 786_0 786_1" intLanes=":785_1_0 :785_1_1 :785_8_0"/>

    <connection from="-1072" to="-786" fromLane="0" toLane="0" via=":785_4_0" tl="785" linkIndex="4" dir="s" state="O"/>
    <connection from="-1072" to="-786" fromLane="1" toLane="1" via=":785_4_1" tl="785" linkIndex="5" dir="s" state="O"/>
    <connection from="-1072" to="1439" fromLane="1" toLane="1" via=":785_6_0" tl="785" linkIndex="6" dir="l" state="o"/>
    <connection from="-1072" to="1072" fromLane="1" toLane="1" via=":785_7_0" tl="785" linkIndex="7" dir="t" state="o"/>
    <connection from="-1439" to="1072" fromLane="0" toLane="0" via=":785_8_0" tl="785" linkIndex="8" dir="r" state="o"/>
    <connection from="-1439" to="-786" fromLane="1" toLane="1" via=":785_9_0" tl="785" linkIndex="9" dir="l" state="o"/>
    <connection from="-1439" to="1439" fromLane="1" toLane="1" via=":785_10_0" tl="785" linkIndex="10" dir="t" state="o"/>
    <connection from="-786" to="786" fromLane="1" toLane="1" via=":469_0_0" dir="t" state="M"/>
    <connection from="1439" to="-1439" fromLane="1" toLane="1" via=":1438_0_0" dir="t" state="M"/>
    <connection from="786" to="1439" fromLane="0" toLane="0" via=":785_0_0" tl="785" linkIndex="0" dir="r" state="O"/>
    <connection from="786" to="1072" fromLane="0" toLane="0" via=":785_1_0" tl="785" linkIndex="1" dir="s" state="O"/>
    <connection from="786" to="1072" fromLane="1" toLane="1" via=":785_1_1" tl="785" linkIndex="2" dir="s" state="O"/>
    <connection from="786" to="-786" fromLane="1" toLane="1" via=":785_3_0" tl="785" linkIndex="3" dir="t" state="o"/>

    <connection from=":1438_0" to="-1439" fromLane="0" toLane="1" dir="t" state="M"/>
    <connection from=":469_0" to="786" fromLane="0" toLane="1" dir="t" state="M"/>
    <connection from=":785_0" to="1439" fromLane="0" toLane="0" dir="r" state="M"/>
    <connection from=":785_1" to="1072" fromLane="0" toLane="0" dir="s" state="M"/>
    <connection from=":785_1" to="1072" fromLane="1" toLane="1" dir="s" state="M"/>
    <connection from=":785_3" to="-786" fromLane="0" toLane="1" via=":785_11_0" dir="t" state="m"/>
    <connection from=":785_11" to="-786" fromLane="0" toLane="1" dir="t" state="M"/>
    <connection from=":785_4" to="-786" fromLane="0" toLane="0" dir="s" state="M"/>
    <connection from=":785_4" to="-786" fromLane="1" toLane="1" dir="s" state="M"/>
    <connection from=":785_6" to="1439" fromLane="0" toLane="1" via=":785_12_0" dir="l" state="m"/>
    <connection from=":785_12" to="1439" fromLane="0" toLane="1" dir="l" state="M"/>
    <connection from=":785_7" to="1072" fromLane="0" toLane="1" via=":785_13_0" dir="t" state="m"/>
    <connection from=":785_13" to="1072" fromLane="0" toLane="1" dir="t" state="M"/>
    <connection from=":785_8" to="1072" fromLane="0" toLane="0" dir="r" state="M"/>
    <connection from=":785_9" to="-786" fromLane="0" toLane="1" dir="l" state="M"/>
    <connection from=":785_10" to="1439" fromLane="0" toLane="1" dir="t" state="M"/>

</net>
