<additional xmlns:xsi="http://www.w3.org/2001/XMLSchema-instance" xsi:noNamespaceSchemaLocation="http://sumo.dlr.de/xsd/additional_file.xsd">
    <laneAreaDetector file="e2output.xml" freq="1" friendlyPos="x" id="e2det_A0A1_0" lane="A0A1_0" length="50" pos="222.70000000000002"/>
    <laneAreaDetector file="e2output.xml" freq="1" friendlyPos="x" id="e2det_A0A1_1" lane="A0A1_1" length="50" pos="222.70000000000002"/>
    <laneAreaDetector file="e2output.xml" freq="1" friendlyPos="x" id="e2det_A0A1_2" lane="A0A1_2" length="50" pos="222.70000000000002"/>
    <laneAreaDetector file="e2output.xml" freq="1" friendlyPos="x" id="e2det_A2A1_0" lane="A2A1_0" length="50" pos="222.70000000000002"/>
    <laneAreaDetector file="e2output.xml" freq="1" friendlyPos="x" id="e2det_A2A1_1" lane="A2A1_1" length="50" pos="222.70000000000002"/>
    <laneAreaDetector file="e2output.xml" freq="1" friendlyPos="x" id="e2det_A2A1_2" lane="A2A1_2" length="50" pos="222.70000000000002"/>
    <laneAreaDetector file="e2output.xml" freq="1" friendlyPos="x" id="e2det_B1A1_0" lane="B1A1_0" length="50" pos="222.70000000000002"/>
    <laneAreaDetector file="e2output.xml" freq="1" friendlyPos="x" id="e2det_B1A1_1" lane="B1A1_1" length="50" pos="222.70000000000002"/>
    <laneAreaDetector file="e2output.xml" freq="1" friendlyPos="x" id="e2det_B1A1_2" lane="B1A1_2" length="50" pos="222.70000000000002"/>
    <laneAreaDetector file="e2output.xml" freq="1" friendlyPos="x" id="e2det_left1A1_0" lane="left1A1_0" length="50" pos="236.29999999999998"/>
    <laneAreaDetector file="e2output.xml" freq="1" friendlyPos="x" id="e2det_left1A1_1" lane="left1A1_1" length="50" pos="236.29999999999998"/>
    <laneAreaDetector file="e2output.xml" freq="1" friendlyPos="x" id="e2det_left1A1_2" lane="left1A1_2" length="50" pos="236.29999999999998"/>
    <laneAreaDetector file="e2output.xml" freq="1" friendlyPos="x" id="e2det_A0B0_0" lane="A0B0_0" length="50" pos="222.70000000000002"/>
    <laneAreaDetector file="e2output.xml" freq="1" friendlyPos="x" id="e2det_A0B0_1" lane="A0B0_1" length="50" pos="222.70000000000002"/>
    <laneAreaDetector file="e2output.xml" freq="1" friendlyPos="x" id="e2det_A0B0_2" lane="A0B0_2" length="50" pos="222.70000000000002"/>
    <laneAreaDetector file="e2output.xml" freq="1" friendlyPos="x" id="e2det_B1B0_0" lane="B1B0_0" length="50" pos="222.70000000000002"/>
    <laneAreaDetector file="e2output.xml" freq="1" friendlyPos="x" id="e2det_B1B0_1" lane="B1B0_1" length="50" pos="222.70000000000002"/>
    <laneAreaDetector file="e2output.xml" freq="1" friendlyPos="x" id="e2det_B1B0_2" lane="B1B0_2" length="50" pos="222.70000000000002"/>
    <laneAreaDetector file="e2output.xml" freq="1" friendlyPos="x" id="e2det_C0B0_0" lane="C0B0_0" length="50" pos="222.70000000000002"/>
    <laneAreaDetector file="e2output.xml" freq="1" friendlyPos="x" id="e2det_C0B0_1" lane="C0B0_1" length="50" pos="222.70000000000002"/>
    <laneAreaDetector file="e2output.xml" freq="1" friendlyPos="x" id="e2det_C0B0_2" lane="C0B0_2" length="50" pos="222.70000000000002"/>
    <laneAreaDetector file="e2output.xml" freq="1" friendlyPos="x" id="e2det_bottom1B0_0" lane="bottom1B0_0" length="50" pos="236.29999999999998"/>
    <laneAreaDetector file="e2output.xml" freq="1" friendlyPos="x" id="e2det_bottom1B0_1" lane="bottom1B0_1" length="50" pos="236.29999999999998"/>
    <laneAreaDetector file="e2output.xml" freq="1" friendlyPos="x" id="e2det_bottom1B0_2" lane="bottom1B0_2" length="50" pos="236.29999999999998"/>
    <laneAreaDetector file="e2output.xml" freq="1" friendlyPos="x" id="e2det_A1A0_0" lane="A1A0_0" length="50" pos="222.70000000000002"/>
    <laneAreaDetector file="e2output.xml" freq="1" friendlyPos="x" id="e2det_A1A0_1" lane="A1A0_1" length="50" pos="222.70000000000002"/>
    <laneAreaDetector file="e2output.xml" freq="1" friendlyPos="x" id="e2det_A1A0_2" lane="A1A0_2" length="50" pos="222.70000000000002"/>
    <laneAreaDetector file="e2output.xml" freq="1" friendlyPos="x" id="e2det_B0A0_0" lane="B0A0_0" length="50" pos="222.70000000000002"/>
    <laneAreaDetector file="e2output.xml" freq="1" friendlyPos="x" id="e2det_B0A0_1" lane="B0A0_1" length="50" pos="222.70000000000002"/>
    <laneAreaDetector file="e2output.xml" freq="1" friendlyPos="x" id="e2det_B0A0_2" lane="B0A0_2" length="50" pos="222.70000000000002"/>
    <laneAreaDetector file="e2output.xml" freq="1" friendlyPos="x" id="e2det_bottom0A0_0" lane="bottom0A0_0" length="50" pos="236.29999999999998"/>
    <laneAreaDetector file="e2output.xml" freq="1" friendlyPos="x" id="e2det_bottom0A0_1" lane="bottom0A0_1" length="50" pos="236.29999999999998"/>
    <laneAreaDetector file="e2output.xml" freq="1" friendlyPos="x" id="e2det_bottom0A0_2" lane="bottom0A0_2" length="50" pos="236.29999999999998"/>
    <laneAreaDetector file="e2output.xml" freq="1" friendlyPos="x" id="e2det_left0A0_0" lane="left0A0_0" length="50" pos="236.29999999999998"/>
    <laneAreaDetector file="e2output.xml" freq="1" friendlyPos="x" id="e2det_left0A0_1" lane="left0A0_1" length="50" pos="236.29999999999998"/>
    <laneAreaDetector file="e2output.xml" freq="1" friendlyPos="x" id="e2det_left0A0_2" lane="left0A0_2" length="50" pos="236.29999999999998"/>
    <laneAreaDetector file="e2output.xml" freq="1" friendlyPos="x" id="e2det_A1A2_0" lane="A1A2_0" length="50" pos="222.70000000000002"/>
    <laneAreaDetector file="e2output.xml" freq="1" friendlyPos="x" id="e2det_A1A2_1" lane="A1A2_1" length="50" pos="222.70000000000002"/>
    <laneAreaDetector file="e2output.xml" freq="1" friendlyPos="x" id="e2det_A1A2_2" lane="A1A2_2" length="50" pos="222.70000000000002"/>
    <laneAreaDetector file="e2output.xml" freq="1" friendlyPos="x" id="e2det_B2A2_0" lane="B2A2_0" length="50" pos="222.70000000000002"/>
    <laneAreaDetector file="e2output.xml" freq="1" friendlyPos="x" id="e2det_B2A2_1" lane="B2A2_1" length="50" pos="222.70000000000002"/>
    <laneAreaDetector file="e2output.xml" freq="1" friendlyPos="x" id="e2det_B2A2_2" lane="B2A2_2" length="50" pos="222.70000000000002"/>
    <laneAreaDetector file="e2output.xml" freq="1" friendlyPos="x" id="e2det_left2A2_0" lane="left2A2_0" length="50" pos="236.29999999999998"/>
    <laneAreaDetector file="e2output.xml" freq="1" friendlyPos="x" id="e2det_left2A2_1" lane="left2A2_1" length="50" pos="236.29999999999998"/>
    <laneAreaDetector file="e2output.xml" freq="1" friendlyPos="x" id="e2det_left2A2_2" lane="left2A2_2" length="50" pos="236.29999999999998"/>
    <laneAreaDetector file="e2output.xml" freq="1" friendlyPos="x" id="e2det_top0A2_0" lane="top0A2_0" length="50" pos="236.29999999999998"/>
    <laneAreaDetector file="e2output.xml" freq="1" friendlyPos="x" id="e2det_top0A2_1" lane="top0A2_1" length="50" pos="236.29999999999998"/>
    <laneAreaDetector file="e2output.xml" freq="1" friendlyPos="x" id="e2det_top0A2_2" lane="top0A2_2" length="50" pos="236.29999999999998"/>
    <laneAreaDetector file="e2output.xml" freq="1" friendlyPos="x" id="e2det_A1B1_0" lane="A1B1_0" length="50" pos="222.70000000000002"/>
    <laneAreaDetector file="e2output.xml" freq="1" friendlyPos="x" id="e2det_A1B1_1" lane="A1B1_1" length="50" pos="222.70000000000002"/>
    <laneAreaDetector file="e2output.xml" freq="1" friendlyPos="x" id="e2det_A1B1_2" lane="A1B1_2" length="50" pos="222.70000000000002"/>
    <laneAreaDetector file="e2output.xml" freq="1" friendlyPos="x" id="e2det_B0B1_0" lane="B0B1_0" length="50" pos="222.70000000000002"/>
    <laneAreaDetector file="e2output.xml" freq="1" friendlyPos="x" id="e2det_B0B1_1" lane="B0B1_1" length="50" pos="222.70000000000002"/>
    <laneAreaDetector file="e2output.xml" freq="1" friendlyPos="x" id="e2det_B0B1_2" lane="B0B1_2" length="50" pos="222.70000000000002"/>
    <laneAreaDetector file="e2output.xml" freq="1" friendlyPos="x" id="e2det_B2B1_0" lane="B2B1_0" length="50" pos="222.70000000000002"/>
    <laneAreaDetector file="e2output.xml" freq="1" friendlyPos="x" id="e2det_B2B1_1" lane="B2B1_1" length="50" pos="222.70000000000002"/>
    <laneAreaDetector file="e2output.xml" freq="1" friendlyPos="x" id="e2det_B2B1_2" lane="B2B1_2" length="50" pos="222.70000000000002"/>
    <laneAreaDetector file="e2output.xml" freq="1" friendlyPos="x" id="e2det_C1B1_0" lane="C1B1_0" length="50" pos="222.70000000000002"/>
    <laneAreaDetector file="e2output.xml" freq="1" friendlyPos="x" id="e2det_C1B1_1" lane="C1B1_1" length="50" pos="222.70000000000002"/>
    <laneAreaDetector file="e2output.xml" freq="1" friendlyPos="x" id="e2det_C1B1_2" lane="C1B1_2" length="50" pos="222.70000000000002"/>
    <laneAreaDetector file="e2output.xml" freq="1" friendlyPos="x" id="e2det_A2B2_0" lane="A2B2_0" length="50" pos="222.70000000000002"/>
    <laneAreaDetector file="e2output.xml" freq="1" friendlyPos="x" id="e2det_A2B2_1" lane="A2B2_1" length="50" pos="222.70000000000002"/>
    <laneAreaDetector file="e2output.xml" freq="1" friendlyPos="x" id="e2det_A2B2_2" lane="A2B2_2" length="50" pos="222.70000000000002"/>
    <laneAreaDetector file="e2output.xml" freq="1" friendlyPos="x" id="e2det_B1B2_0" lane="B1B2_0" length="50" pos="222.70000000000002"/>
    <laneAreaDetector file="e2output.xml" freq="1" friendlyPos="x" id="e2det_B1B2_1" lane="B1B2_1" length="50" pos="222.70000000000002"/>
    <laneAreaDetector file="e2output.xml" freq="1" friendlyPos="x" id="e2det_B1B2_2" lane="B1B2_2" length="50" pos="222.70000000000002"/>
    <laneAreaDetector file="e2output.xml" freq="1" friendlyPos="x" id="e2det_C2B2_0" lane="C2B2_0" length="50" pos="222.70000000000002"/>
    <laneAreaDetector file="e2output.xml" freq="1" friendlyPos="x" id="e2det_C2B2_1" lane="C2B2_1" length="50" pos="222.70000000000002"/>
    <laneAreaDetector file="e2output.xml" freq="1" friendlyPos="x" id="e2det_C2B2_2" lane="C2B2_2" length="50" pos="222.70000000000002"/>
    <laneAreaDetector file="e2output.xml" freq="1" friendlyPos="x" id="e2det_top1B2_0" lane="top1B2_0" length="50" pos="236.29999999999998"/>
    <laneAreaDetector file="e2output.xml" freq="1" friendlyPos="x" id="e2det_top1B2_1" lane="top1B2_1" length="50" pos="236.29999999999998"/>
    <laneAreaDetector file="e2output.xml" freq="1" friendlyPos="x" id="e2det_top1B2_2" lane="top1B2_2" length="50" pos="236.29999999999998"/>
    <laneAreaDetector file="e2output.xml" freq="1" friendlyPos="x" id="e2det_B0C0_0" lane="B0C0_0" length="50" pos="222.70000000000002"/>
    <laneAreaDetector file="e2output.xml" freq="1" friendlyPos="x" id="e2det_B0C0_1" lane="B0C0_1" length="50" pos="222.70000000000002"/>
    <laneAreaDetector file="e2output.xml" freq="1" friendlyPos="x" id="e2det_B0C0_2" lane="B0C0_2" length="50" pos="222.70000000000002"/>
    <laneAreaDetector file="e2output.xml" freq="1" friendlyPos="x" id="e2det_C1C0_0" lane="C1C0_0" length="50" pos="222.70000000000002"/>
    <laneAreaDetector file="e2output.xml" freq="1" friendlyPos="x" id="e2det_C1C0_1" lane="C1C0_1" length="50" pos="222.70000000000002"/>
    <laneAreaDetector file="e2output.xml" freq="1" friendlyPos="x" id="e2det_C1C0_2" lane="C1C0_2" length="50" pos="222.70000000000002"/>
    <laneAreaDetector file="e2output.xml" freq="1" friendlyPos="x" id="e2det_bottom2C0_0" lane="bottom2C0_0" length="50" pos="236.29999999999998"/>
    <laneAreaDetector file="e2output.xml" freq="1" friendlyPos="x" id="e2det_bottom2C0_1" lane="bottom2C0_1" length="50" pos="236.29999999999998"/>
    <laneAreaDetector file="e2output.xml" freq="1" friendlyPos="x" id="e2det_bottom2C0_2" lane="bottom2C0_2" length="50" pos="236.29999999999998"/>
    <laneAreaDetector file="e2output.xml" freq="1" friendlyPos="x" id="e2det_right0C0_0" lane="right0C0_0" length="50" pos="236.29999999999998"/>
    <laneAreaDetector file="e2output.xml" freq="1" friendlyPos="x" id="e2det_right0C0_1" lane="right0C0_1" length="50" pos="236.29999999999998"/>
    <laneAreaDetector file="e2output.xml" freq="1" friendlyPos="x" id="e2det_right0C0_2" lane="right0C0_2" length="50" pos="236.29999999999998"/>
    <laneAreaDetector file="e2output.xml" freq="1" friendlyPos="x" id="e2det_B1C1_0" lane="B1C1_0" length="50" pos="222.70000000000002"/>
    <laneAreaDetector file="e2output.xml" freq="1" friendlyPos="x" id="e2det_B1C1_1" lane="B1C1_1" length="50" pos="222.70000000000002"/>
    <laneAreaDetector file="e2output.xml" freq="1" friendlyPos="x" id="e2det_B1C1_2" lane="B1C1_2" length="50" pos="222.70000000000002"/>
    <laneAreaDetector file="e2output.xml" freq="1" friendlyPos="x" id="e2det_C0C1_0" lane="C0C1_0" length="50" pos="222.70000000000002"/>
    <laneAreaDetector file="e2output.xml" freq="1" friendlyPos="x" id="e2det_C0C1_1" lane="C0C1_1" length="50" pos="222.70000000000002"/>
    <laneAreaDetector file="e2output.xml" freq="1" friendlyPos="x" id="e2det_C0C1_2" lane="C0C1_2" length="50" pos="222.70000000000002"/>
    <laneAreaDetector file="e2output.xml" freq="1" friendlyPos="x" id="e2det_C2C1_0" lane="C2C1_0" length="50" pos="222.70000000000002"/>
    <laneAreaDetector file="e2output.xml" freq="1" friendlyPos="x" id="e2det_C2C1_1" lane="C2C1_1" length="50" pos="222.70000000000002"/>
    <laneAreaDetector file="e2output.xml" freq="1" friendlyPos="x" id="e2det_C2C1_2" lane="C2C1_2" length="50" pos="222.70000000000002"/>
    <laneAreaDetector file="e2output.xml" freq="1" friendlyPos="x" id="e2det_right1C1_0" lane="right1C1_0" length="50" pos="236.29999999999998"/>
    <laneAreaDetector file="e2output.xml" freq="1" friendlyPos="x" id="e2det_right1C1_1" lane="right1C1_1" length="50" pos="236.29999999999998"/>
    <laneAreaDetector file="e2output.xml" freq="1" friendlyPos="x" id="e2det_right1C1_2" lane="right1C1_2" length="50" pos="236.29999999999998"/>
    <laneAreaDetector file="e2output.xml" freq="1" friendlyPos="x" id="e2det_B2C2_0" lane="B2C2_0" length="50" pos="222.70000000000002"/>
    <laneAreaDetector file="e2output.xml" freq="1" friendlyPos="x" id="e2det_B2C2_1" lane="B2C2_1" length="50" pos="222.70000000000002"/>
    <laneAreaDetector file="e2output.xml" freq="1" friendlyPos="x" id="e2det_B2C2_2" lane="B2C2_2" length="50" pos="222.70000000000002"/>
    <laneAreaDetector file="e2output.xml" freq="1" friendlyPos="x" id="e2det_C1C2_0" lane="C1C2_0" length="50" pos="222.70000000000002"/>
    <laneAreaDetector file="e2output.xml" freq="1" friendlyPos="x" id="e2det_C1C2_1" lane="C1C2_1" length="50" pos="222.70000000000002"/>
    <laneAreaDetector file="e2output.xml" freq="1" friendlyPos="x" id="e2det_C1C2_2" lane="C1C2_2" length="50" pos="222.70000000000002"/>
    <laneAreaDetector file="e2output.xml" freq="1" friendlyPos="x" id="e2det_right2C2_0" lane="right2C2_0" length="50" pos="236.29999999999998"/>
    <laneAreaDetector file="e2output.xml" freq="1" friendlyPos="x" id="e2det_right2C2_1" lane="right2C2_1" length="50" pos="236.29999999999998"/>
    <laneAreaDetector file="e2output.xml" freq="1" friendlyPos="x" id="e2det_right2C2_2" lane="right2C2_2" length="50" pos="236.29999999999998"/>
    <laneAreaDetector file="e2output.xml" freq="1" friendlyPos="x" id="e2det_top2C2_0" lane="top2C2_0" length="50" pos="236.29999999999998"/>
    <laneAreaDetector file="e2output.xml" freq="1" friendlyPos="x" id="e2det_top2C2_1" lane="top2C2_1" length="50" pos="236.29999999999998"/>
    <laneAreaDetector file="e2output.xml" freq="1" friendlyPos="x" id="e2det_top2C2_2" lane="top2C2_2" length="50" pos="236.29999999999998"/>
</additional>
