<?xml version="1.0" encoding="UTF-8"?>

<!-- generated on 2023-11-04 20:31:56.018689 by randomTrips.py v1_18_0+2252-856361c42b4
<configuration>
    <net-file value="3x3_sumo_grid.net.xml"/>
    <output-trip-file value="3x3_sumo_grid.trips.xml"/>
    <route-file value="3x3_sumo_grid.rou.xml"/>
    <trip-attributes value="maxSpeed=&quot;max&quot;"/>
    <fringe-factor value="100"/>
    <remove-loops value="True"/>
    <validate value="True"/>
    <insertion-rate value="8412.0"/>
</configuration>
-->

<!-- generated on 2023-11-04 20:31:55 by Eclipse SUMO duarouter Version v1_18_0+1767-2a5073732ae
<configuration xmlns:xsi="http://www.w3.org/2001/XMLSchema-instance" xsi:noNamespaceSchemaLocation="http://sumo.dlr.de/xsd/duarouterConfiguration.xsd">

    <input>
        <net-file value="3x3_sumo_grid.net.xml"/>
        <route-files value="3x3_sumo_grid.trips.xml"/>
    </input>

    <output>
        <output-file value="3x3_sumo_grid.trips.xml.tmp"/>
        <alternatives-output value="NUL"/>
        <write-trips value="true"/>
    </output>

    <processing>
        <remove-loops value="true"/>
    </processing>

    <time>
        <begin value="0.0"/>
        <end value="3600.0"/>
    </time>

    <report>
        <no-warnings value="true"/>
        <ignore-errors value="true"/>
        <no-step-log value="true"/>
    </report>

</configuration>
-->

<routes xmlns:xsi="http://www.w3.org/2001/XMLSchema-instance" xsi:noNamespaceSchemaLocation="http://sumo.dlr.de/xsd/routes_file.xsd">
    <trip id="0" depart="0.00" from="right1C1" to="A0bottom0"/>
    <trip id="1" depart="0.43" from="left0A0" to="A1left1"/>
    <trip id="2" depart="0.86" from="right2C2" to="C0right0"/>
    <trip id="3" depart="1.28" from="top1B2" to="A0left0"/>
    <trip id="4" depart="1.71" from="left1A1" to="A0bottom0"/>
    <trip id="5" depart="2.14" from="bottom2C0" to="B2top1"/>
    <trip id="6" depart="2.57" from="bottom0A0" to="A1left1"/>
    <trip id="7" depart="3.00" from="right1C1" to="B2top1"/>
    <trip id="8" depart="3.42" from="bottom2C0" to="C0bottom2"/>
    <trip id="9" depart="3.85" from="top0A2" to="A0bottom0"/>
    <trip id="10" depart="4.28" from="top0A2" to="C0right0"/>
    <trip id="11" depart="4.71" from="left0A0" to="A0left0"/>
    <trip id="12" depart="5.14" from="top2C2" to="A2top0"/>
    <trip id="13" depart="5.56" from="bottom0A0" to="A0left0"/>
    <trip id="14" depart="5.99" from="top1B2" to="C0bottom2"/>
    <trip id="15" depart="6.42" from="top0A2" to="C0right0"/>
    <trip id="16" depart="6.85" from="right0C0" to="C2top2"/>
    <trip id="17" depart="7.28" from="left1A1" to="B2top1"/>
    <trip id="18" depart="7.70" from="top0A2" to="C0bottom2"/>
    <trip id="19" depart="8.13" from="top1B2" to="B2top1"/>
    <trip id="20" depart="8.56" from="right2C2" to="A0bottom0"/>
    <trip id="21" depart="8.99" from="bottom2C0" to="A2left2"/>
    <trip id="22" depart="9.42" from="bottom0A0" to="A1left1"/>
    <trip id="23" depart="9.84" from="bottom0A0" to="A2left2"/>
    <trip id="24" depart="10.27" from="right1C1" to="A2top0"/>
    <trip id="25" depart="10.70" from="left1A1" to="A1left1"/>
    <trip id="26" depart="11.13" from="left0A0" to="C2top2"/>
    <trip id="27" depart="11.55" from="right1C1" to="C0bottom2"/>
    <trip id="28" depart="11.98" from="bottom1B0" to="C0right0"/>
    <trip id="29" depart="12.41" from="bottom1B0" to="A2top0"/>
    <trip id="30" depart="12.84" from="top2C2" to="C0bottom2"/>
    <trip id="31" depart="13.27" from="right0C0" to="C0right0"/>
    <trip id="32" depart="13.69" from="top1B2" to="C1right1"/>
    <trip id="33" depart="14.12" from="bottom2C0" to="A0bottom0"/>
    <trip id="34" depart="14.55" from="left0A0" to="A2left2"/>
    <trip id="35" depart="14.98" from="bottom2C0" to="C2top2"/>
    <trip id="36" depart="15.41" from="top1B2" to="A2left2"/>
    <trip id="37" depart="15.83" from="right1C1" to="A2top0"/>
    <trip id="38" depart="16.26" from="top1B2" to="B0bottom1"/>
    <trip id="39" depart="16.69" from="left0A0" to="A1left1"/>
    <trip id="40" depart="17.12" from="right0C0" to="A2left2"/>
    <trip id="41" depart="17.55" from="right0C0" to="C2right2"/>
    <trip id="42" depart="17.97" from="left1A1" to="A1left1"/>
    <trip id="43" depart="18.40" from="top2C2" to="B2top1"/>
    <trip id="44" depart="18.83" from="bottom0A0" to="A0bottom0"/>
    <trip id="45" depart="19.26" from="bottom1B0" to="C0bottom2"/>
    <trip id="46" depart="19.69" from="top0A2" to="B0bottom1"/>
    <trip id="47" depart="20.11" from="bottom0A0" to="A2top0"/>
    <trip id="48" depart="20.54" from="top2C2" to="B2top1"/>
    <trip id="49" depart="20.97" from="top2C2" to="C2right2"/>
    <trip id="50" depart="21.40" from="B2A2" to="C0right0"/>
    <trip id="51" depart="21.83" from="right2C2" to="B2top1"/>
    <trip id="52" depart="22.25" from="left0A0" to="C0bottom2"/>
    <trip id="53" depart="22.68" from="bottom1B0" to="B0bottom1"/>
    <trip id="54" depart="23.11" from="left2A2" to="C2top2"/>
    <trip id="55" depart="23.54" from="top1B2" to="A2left2"/>
    <trip id="56" depart="23.97" from="left2A2" to="A1left1"/>
    <trip id="57" depart="24.39" from="top1B2" to="C2right2"/>
    <trip id="58" depart="24.82" from="left0A0" to="C0bottom2"/>
    <trip id="59" depart="25.25" from="right1C1" to="A0left0"/>
    <trip id="60" depart="25.68" from="top0A2" to="B2top1"/>
    <trip id="61" depart="26.11" from="top0A2" to="B2top1"/>
    <trip id="62" depart="26.53" from="A0A1" to="A2left2"/>
    <trip id="63" depart="26.96" from="B2C2" to="C2top2"/>
    <trip id="64" depart="27.39" from="top1B2" to="C1right1"/>
    <trip id="65" depart="27.82" from="left0A0" to="A0bottom0"/>
    <trip id="66" depart="28.25" from="top1B2" to="C2top2"/>
    <trip id="67" depart="28.67" from="bottom0A0" to="B0bottom1"/>
    <trip id="68" depart="29.10" from="bottom0A0" to="C1right1"/>
    <trip id="69" depart="29.53" from="top0A2" to="A0left0"/>
    <trip id="70" depart="29.96" from="left2A2" to="B2top1"/>
    <trip id="71" depart="30.39" from="left0A0" to="C2right2"/>
    <trip id="72" depart="30.81" from="left1A1" to="A1left1"/>
    <trip id="73" depart="31.24" from="right0C0" to="C0right0"/>
    <trip id="74" depart="31.67" from="bottom2C0" to="A2left2"/>
    <trip id="75" depart="32.10" from="top2C2" to="C0bottom2"/>
    <trip id="76" depart="32.52" from="left2A2" to="B2top1"/>
    <trip id="77" depart="32.95" from="bottom1B0" to="A1left1"/>
    <trip id="78" depart="33.38" from="left0A0" to="C0bottom2"/>
    <trip id="79" depart="33.81" from="bottom2C0" to="A1left1"/>
    <trip id="80" depart="34.24" from="bottom0A0" to="C0bottom2"/>
    <trip id="81" depart="34.66" from="bottom2C0" to="C2right2"/>
    <trip id="82" depart="35.09" from="top1B2" to="A0bottom0"/>
    <trip id="83" depart="35.52" from="bottom2C0" to="C0bottom2"/>
    <trip id="84" depart="35.95" from="bottom2C0" to="A0left0"/>
    <trip id="85" depart="36.38" from="top2C2" to="B2top1"/>
    <trip id="86" depart="36.80" from="left2A2" to="C1right1"/>
    <trip id="87" depart="37.23" from="top0A2" to="A1left1"/>
    <trip id="88" depart="37.66" from="bottom0A0" to="B0bottom1"/>
    <trip id="89" depart="38.09" from="left1A1" to="B0bottom1"/>
    <trip id="90" depart="38.52" from="right2C2" to="C0right0"/>
    <trip id="91" depart="38.94" from="top2C2" to="A0left0"/>
    <trip id="92" depart="39.37" from="left1A1" to="A2top0"/>
    <trip id="93" depart="39.80" from="top1B2" to="A1left1"/>
    <trip id="94" depart="40.23" from="bottom2C0" to="B0bottom1"/>
    <trip id="95" depart="40.66" from="left1A1" to="A2left2"/>
    <trip id="96" depart="41.08" from="bottom2C0" to="C2top2"/>
    <trip id="97" depart="41.51" from="left2A2" to="C2right2"/>
    <trip id="98" depart="41.94" from="right0C0" to="A0bottom0"/>
    <trip id="99" depart="42.37" from="top2C2" to="C2C1"/>
    <trip id="100" depart="42.80" from="top2C2" to="C2top2"/>
    <trip id="101" depart="43.22" from="top1B2" to="A1A2"/>
    <trip id="102" depart="43.65" from="left2A2" to="A1left1"/>
    <trip id="103" depart="44.08" from="left1A1" to="A0bottom0"/>
    <trip id="104" depart="44.51" from="left1A1" to="C2top2"/>
    <trip id="105" depart="44.94" from="left0A0" to="C1right1"/>
    <trip id="106" depart="45.36" from="left2A2" to="B0bottom1"/>
    <trip id="107" depart="45.79" from="top2C2" to="C2top2"/>
    <trip id="108" depart="46.22" from="right0C0" to="C0right0"/>
    <trip id="109" depart="46.65" from="bottom1B0" to="A2left2"/>
    <trip id="110" depart="47.08" from="top2C2" to="B2top1"/>
    <trip id="111" depart="47.50" from="right0C0" to="C0right0"/>
    <trip id="112" depart="47.93" from="bottom0A0" to="B2top1"/>
    <trip id="113" depart="48.36" from="left2A2" to="C2right2"/>
    <trip id="114" depart="48.79" from="bottom1B0" to="C2top2"/>
    <trip id="115" depart="49.22" from="bottom0A0" to="A1left1"/>
    <trip id="116" depart="49.64" from="right1C1" to="C0right0"/>
    <trip id="117" depart="50.07" from="bottom2C0" to="A0left0"/>
    <trip id="118" depart="50.50" from="top1B2" to="A1left1"/>
    <trip id="119" depart="50.93" from="right1C1" to="C0bottom2"/>
    <trip id="120" depart="51.36" from="left1A1" to="B2top1"/>
    <trip id="121" depart="51.78" from="right0C0" to="C2top2"/>
    <trip id="122" depart="52.21" from="bottom2C0" to="C0right0"/>
    <trip id="123" depart="52.64" from="bottom2C0" to="A2top0"/>
    <trip id="124" depart="53.07" from="right1C1" to="A2left2"/>
    <trip id="125" depart="53.50" from="left0A0" to="C1C0"/>
    <trip id="126" depart="53.92" from="bottom0A0" to="B0bottom1"/>
    <trip id="127" depart="54.35" from="top2C2" to="C2top2"/>
    <trip id="128" depart="54.78" from="bottom0A0" to="A1left1"/>
    <trip id="129" depart="55.21" from="left0A0" to="C2top2"/>
    <trip id="130" depart="55.63" from="top1B2" to="C2right2"/>
    <trip id="131" depart="56.06" from="left1A1" to="A0left0"/>
    <trip id="132" depart="56.49" from="top0A2" to="C0right0"/>
    <trip id="133" depart="56.92" from="right1C1" to="C2top2"/>
    <trip id="134" depart="57.35" from="right1C1" to="A0bottom0"/>
    <trip id="135" depart="57.77" from="top0A2" to="A2left2"/>
    <trip id="136" depart="58.20" from="right1C1" to="C2top2"/>
    <trip id="137" depart="58.63" from="bottom1B0" to="A0left0"/>
    <trip id="138" depart="59.06" from="bottom1B0" to="B2top1"/>
    <trip id="139" depart="59.49" from="left0A0" to="C0bottom2"/>
    <trip id="140" depart="59.91" from="right2C2" to="A1left1"/>
    <trip id="141" depart="60.34" from="right1C1" to="A2left2"/>
    <trip id="142" depart="60.77" from="left2A2" to="C2right2"/>
    <trip id="143" depart="61.20" from="top1B2" to="A0left0"/>
    <trip id="144" depart="61.63" from="left1A1" to="A2left2"/>
    <trip id="145" depart="62.05" from="A1B1" to="C1right1"/>
    <trip id="146" depart="62.48" from="right1C1" to="A2left2"/>
    <trip id="147" depart="62.91" from="right2C2" to="B2top1"/>
    <trip id="148" depart="63.34" from="left1A1" to="A0bottom0"/>
    <trip id="149" depart="63.77" from="bottom0A0" to="C2right2"/>
    <trip id="150" depart="64.19" from="top1B2" to="B2top1"/>
    <trip id="151" depart="64.62" from="top0A2" to="B2top1"/>
    <trip id="152" depart="65.05" from="bottom1B0" to="A0left0"/>
    <trip id="153" depart="65.48" from="left0A0" to="C2right2"/>
    <trip id="154" depart="65.91" from="top0A2" to="C2right2"/>
    <trip id="155" depart="66.33" from="top1B2" to="A1left1"/>
    <trip id="156" depart="66.76" from="bottom2C0" to="A0left0"/>
    <trip id="157" depart="67.19" from="top0A2" to="C2right2"/>
    <trip id="158" depart="67.62" from="left1A1" to="C0bottom2"/>
    <trip id="159" depart="68.05" from="bottom1B0" to="C2top2"/>
    <trip id="160" depart="68.47" from="top1B2" to="C2top2"/>
    <trip id="161" depart="68.90" from="top0A2" to="C2right2"/>
    <trip id="162" depart="69.33" from="bottom0A0" to="C0right0"/>
    <trip id="163" depart="69.76" from="left0A0" to="C2top2"/>
    <trip id="164" depart="70.19" from="top0A2" to="C2right2"/>
    <trip id="165" depart="70.61" from="top0A2" to="A2left2"/>
    <trip id="166" depart="71.04" from="top0A2" to="A0left0"/>
    <trip id="167" depart="71.47" from="top1B2" to="C2right2"/>
    <trip id="168" depart="71.90" from="bottom2C0" to="C1right1"/>
    <trip id="169" depart="72.33" from="left2A2" to="A2left2"/>
    <trip id="170" depart="72.75" from="top0A2" to="A1left1"/>
    <trip id="171" depart="73.18" from="bottom0A0" to="A1left1"/>
    <trip id="172" depart="73.61" from="left0A0" to="C2right2"/>
    <trip id="173" depart="74.04" from="top2C2" to="A2left2"/>
    <trip id="174" depart="74.47" from="right1C1" to="A2top0"/>
    <trip id="175" depart="74.89" from="top2C2" to="B2top1"/>
    <trip id="176" depart="75.32" from="top2C2" to="A0left0"/>
    <trip id="177" depart="75.75" from="top2C2" to="A1left1"/>
    <trip id="178" depart="76.18" from="top2C2" to="A2left2"/>
    <trip id="179" depart="76.60" from="bottom1B0" to="B0bottom1"/>
    <trip id="180" depart="77.03" from="right2C2" to="A2left2"/>
    <trip id="181" depart="77.46" from="right1C1" to="B2top1"/>
    <trip id="182" depart="77.89" from="left1A1" to="B2top1"/>
    <trip id="183" depart="78.32" from="bottom2C0" to="C0right0"/>
    <trip id="184" depart="78.74" from="A1A0" to="C2top2"/>
    <trip id="185" depart="79.17" from="right0C0" to="C0right0"/>
    <trip id="186" depart="79.60" from="right2C2" to="C0right0"/>
    <trip id="187" depart="80.03" from="left1A1" to="A0bottom0"/>
    <trip id="188" depart="80.46" from="right1C1" to="A2left2"/>
    <trip id="189" depart="80.88" from="left0A0" to="C2right2"/>
    <trip id="190" depart="81.31" from="right2C2" to="A2left2"/>
    <trip id="191" depart="81.74" from="left0A0" to="A2top0"/>
    <trip id="192" depart="82.17" from="left1A1" to="A2left2"/>
    <trip id="193" depart="82.60" from="bottom1B0" to="B0bottom1"/>
    <trip id="194" depart="83.02" from="top2C2" to="C0right0"/>
    <trip id="195" depart="83.45" from="top1B2" to="C0bottom2"/>
    <trip id="196" depart="83.88" from="left0A0" to="B2top1"/>
    <trip id="197" depart="84.31" from="A0A1" to="A2left2"/>
    <trip id="198" depart="84.74" from="left2A2" to="B2top1"/>
    <trip id="199" depart="85.16" from="right1C1" to="B0bottom1"/>
    <trip id="200" depart="85.59" from="left2A2" to="A1left1"/>
    <trip id="201" depart="86.02" from="left2A2" to="C2right2"/>
    <trip id="202" depart="86.45" from="top0A2" to="A1left1"/>
    <trip id="203" depart="86.88" from="bottom0A0" to="B2top1"/>
    <trip id="204" depart="87.30" from="right1C1" to="A2top0"/>
    <trip id="205" depart="87.73" from="top0A2" to="C1B1"/>
    <trip id="206" depart="88.16" from="right1C1" to="A1left1"/>
    <trip id="207" depart="88.59" from="bottom2C0" to="A0bottom0"/>
    <trip id="208" depart="89.02" from="bottom2C0" to="B0bottom1"/>
    <trip id="209" depart="89.44" from="top1B2" to="A0bottom0"/>
    <trip id="210" depart="89.87" from="left1A1" to="C0bottom2"/>
    <trip id="211" depart="90.30" from="bottom2C0" to="C0right0"/>
    <trip id="212" depart="90.73" from="left2A2" to="A1left1"/>
    <trip id="213" depart="91.16" from="right1C1" to="A0bottom0"/>
    <trip id="214" depart="91.58" from="right2C2" to="C1right1"/>
    <trip id="215" depart="92.01" from="bottom1B0" to="B0bottom1"/>
    <trip id="216" depart="92.44" from="bottom1B0" to="C2top2"/>
    <trip id="217" depart="92.87" from="right0C0" to="A0bottom0"/>
    <trip id="218" depart="93.30" from="bottom2C0" to="C2right2"/>
    <trip id="219" depart="93.72" from="left2A2" to="C1right1"/>
    <trip id="220" depart="94.15" from="right1C1" to="C2top2"/>
    <trip id="221" depart="94.58" from="right1C1" to="C2top2"/>
    <trip id="222" depart="95.01" from="top1B2" to="C0bottom2"/>
    <trip id="223" depart="95.44" from="right2C2" to="B2top1"/>
    <trip id="224" depart="95.86" from="top0A2" to="B2top1"/>
    <trip id="225" depart="96.29" from="top1B2" to="C0right0"/>
    <trip id="226" depart="96.72" from="left2A2" to="A2left2"/>
    <trip id="227" depart="97.15" from="bottom2C0" to="C0bottom2"/>
    <trip id="228" depart="97.57" from="top0A2" to="B2top1"/>
    <trip id="229" depart="98.00" from="right1C1" to="A2left2"/>
    <trip id="230" depart="98.43" from="bottom0A0" to="A2left2"/>
    <trip id="231" depart="98.86" from="left0A0" to="A2left2"/>
    <trip id="232" depart="99.29" from="right0C0" to="A0left0"/>
    <trip id="233" depart="99.71" from="bottom2C0" to="C0right0"/>
    <trip id="234" depart="100.14" from="right2C2" to="A0bottom0"/>
    <trip id="235" depart="100.57" from="left1A1" to="B2top1"/>
    <trip id="236" depart="101.00" from="left1A1" to="A1left1"/>
    <trip id="237" depart="101.43" from="left1A1" to="C2right2"/>
    <trip id="238" depart="101.85" from="right0C0" to="C0right0"/>
    <trip id="239" depart="102.28" from="top1B2" to="C1right1"/>
    <trip id="240" depart="102.71" from="left1A1" to="A0bottom0"/>
    <trip id="241" depart="103.14" from="left1A1" to="C1right1"/>
    <trip id="242" depart="103.57" from="top1B2" to="C2top2"/>
    <trip id="243" depart="103.99" from="left1A1" to="C0right0"/>
    <trip id="244" depart="104.42" from="right0C0" to="C0bottom2"/>
    <trip id="245" depart="104.85" from="bottom2C0" to="A1left1"/>
    <trip id="246" depart="105.28" from="left2A2" to="A0bottom0"/>
    <trip id="247" depart="105.71" from="left0A0" to="C0right0"/>
    <trip id="248" depart="106.13" from="left1A1" to="A1A0"/>
    <trip id="249" depart="106.56" from="left2A2" to="A0left0"/>
    <trip id="250" depart="106.99" from="right1C1" to="A0bottom0"/>
    <trip id="251" depart="107.42" from="left1A1" to="B2top1"/>
    <trip id="252" depart="107.85" from="bottom0A0" to="C0bottom2"/>
    <trip id="253" depart="108.27" from="bottom1B0" to="B0bottom1"/>
    <trip id="254" depart="108.70" from="bottom0A0" to="A2top0"/>
    <trip id="255" depart="109.13" from="bottom2C0" to="A2left2"/>
    <trip id="256" depart="109.56" from="top0A2" to="A2top0"/>
    <trip id="257" depart="109.99" from="right2C2" to="C1right1"/>
    <trip id="258" depart="110.41" from="bottom2C0" to="A0bottom0"/>
    <trip id="259" depart="110.84" from="C2C1" to="B2top1"/>
    <trip id="260" depart="111.27" from="top2C2" to="A2top0"/>
    <trip id="261" depart="111.70" from="right1C1" to="C1right1"/>
    <trip id="262" depart="112.13" from="right1C1" to="C1right1"/>
    <trip id="263" depart="112.55" from="top2C2" to="A1left1"/>
    <trip id="264" depart="112.98" from="bottom0A0" to="A0left0"/>
    <trip id="265" depart="113.41" from="bottom1B0" to="C0right0"/>
    <trip id="266" depart="113.84" from="right0C0" to="A1left1"/>
    <trip id="267" depart="114.27" from="right2C2" to="C1right1"/>
    <trip id="268" depart="114.69" from="bottom1B0" to="C0bottom2"/>
    <trip id="269" depart="115.12" from="right2C2" to="A0left0"/>
    <trip id="270" depart="115.55" from="top0A2" to="C2top2"/>
    <trip id="271" depart="115.98" from="bottom1B0" to="A0bottom0"/>
    <trip id="272" depart="116.41" from="left0A0" to="C0right0"/>
    <trip id="273" depart="116.83" from="top2C2" to="A2top0"/>
    <trip id="274" depart="117.26" from="right2C2" to="A0bottom0"/>
    <trip id="275" depart="117.69" from="right2C2" to="C0bottom2"/>
    <trip id="276" depart="118.12" from="bottom1B0" to="C1right1"/>
    <trip id="277" depart="118.54" from="top1B2" to="C0bottom2"/>
    <trip id="278" depart="118.97" from="bottom1B0" to="C2top2"/>
    <trip id="279" depart="119.40" from="top0A2" to="A2top0"/>
    <trip id="280" depart="119.83" from="left2A2" to="A2top0"/>
    <trip id="281" depart="120.26" from="left2A2" to="A2top0"/>
    <trip id="282" depart="120.68" from="top1B2" to="C1right1"/>
    <trip id="283" depart="121.11" from="bottom1B0" to="C2top2"/>
    <trip id="284" depart="121.54" from="right1C1" to="C1right1"/>
    <trip id="285" depart="121.97" from="right2C2" to="B0bottom1"/>
    <trip id="286" depart="122.40" from="right2C2" to="C2top2"/>
    <trip id="287" depart="122.82" from="left0A0" to="C1right1"/>
    <trip id="288" depart="123.25" from="right0C0" to="B0bottom1"/>
    <trip id="289" depart="123.68" from="left2A2" to="C0right0"/>
    <trip id="290" depart="124.11" from="left0A0" to="C2right2"/>
    <trip id="291" depart="124.54" from="top0A2" to="A0left0"/>
    <trip id="292" depart="124.96" from="top1B2" to="A1left1"/>
    <trip id="293" depart="125.39" from="left2A2" to="C0bottom2"/>
    <trip id="294" depart="125.82" from="left1A1" to="A0bottom0"/>
    <trip id="295" depart="126.25" from="top1B2" to="A1left1"/>
    <trip id="296" depart="126.68" from="bottom2C0" to="C1right1"/>
    <trip id="297" depart="127.10" from="left0A0" to="C2right2"/>
    <trip id="298" depart="127.53" from="right2C2" to="A2left2"/>
    <trip id="299" depart="127.96" from="B1B2" to="C2top2"/>
    <trip id="300" depart="128.39" from="bottom0A0" to="C0right0"/>
    <trip id="301" depart="128.82" from="left2A2" to="C1right1"/>
    <trip id="302" depart="129.24" from="right2C2" to="C0bottom2"/>
    <trip id="303" depart="129.67" from="left2A2" to="C1right1"/>
    <trip id="304" depart="130.10" from="bottom0A0" to="A1left1"/>
    <trip id="305" depart="130.53" from="right2C2" to="A2left2"/>
    <trip id="306" depart="130.96" from="right0C0" to="B0bottom1"/>
    <trip id="307" depart="131.38" from="right0C0" to="B0bottom1"/>
    <trip id="308" depart="131.81" from="right2C2" to="A2left2"/>
    <trip id="309" depart="132.24" from="right2C2" to="A2left2"/>
    <trip id="310" depart="132.67" from="bottom2C0" to="A0left0"/>
    <trip id="311" depart="133.10" from="bottom2C0" to="A0left0"/>
    <trip id="312" depart="133.52" from="right0C0" to="C1right1"/>
    <trip id="313" depart="133.95" from="bottom2C0" to="A1left1"/>
    <trip id="314" depart="134.38" from="left2A2" to="C0right0"/>
    <trip id="315" depart="134.81" from="top2C2" to="B2top1"/>
    <trip id="316" depart="135.24" from="left0A0" to="A0left0"/>
    <trip id="317" depart="135.66" from="bottom2C0" to="A1left1"/>
    <trip id="318" depart="136.09" from="bottom1B0" to="A0bottom0"/>
    <trip id="319" depart="136.52" from="right0C0" to="A2left2"/>
    <trip id="320" depart="136.95" from="top2C2" to="B2top1"/>
    <trip id="321" depart="137.38" from="right2C2" to="A0left0"/>
    <trip id="322" depart="137.80" from="top1B2" to="B0bottom1"/>
    <trip id="323" depart="138.23" from="top1B2" to="B2top1"/>
    <trip id="324" depart="138.66" from="left2A2" to="B0bottom1"/>
    <trip id="325" depart="139.09" from="bottom2C0" to="A0bottom0"/>
    <trip id="326" depart="139.51" from="top2C2" to="B0bottom1"/>
    <trip id="327" depart="139.94" from="top0A2" to="A2top0"/>
    <trip id="328" depart="140.37" from="bottom0A0" to="C0bottom2"/>
    <trip id="329" depart="140.80" from="bottom0A0" to="A0left0"/>
    <trip id="330" depart="141.23" from="right0C0" to="A2left2"/>
    <trip id="331" depart="141.65" from="top2C2" to="A0left0"/>
    <trip id="332" depart="142.08" from="top0A2" to="C0bottom2"/>
    <trip id="333" depart="142.51" from="top0A2" to="A1left1"/>
    <trip id="334" depart="142.94" from="right0C0" to="B0bottom1"/>
    <trip id="335" depart="143.37" from="left2A2" to="C2right2"/>
    <trip id="336" depart="143.79" from="top2C2" to="A2left2"/>
    <trip id="337" depart="144.22" from="right1C1" to="C0bottom2"/>
    <trip id="338" depart="144.65" from="right2C2" to="C2top2"/>
    <trip id="339" depart="145.08" from="bottom2C0" to="A1left1"/>
    <trip id="340" depart="145.51" from="right1C1" to="A0left0"/>
    <trip id="341" depart="145.93" from="bottom1B0" to="A0bottom0"/>
    <trip id="342" depart="146.36" from="A1A2" to="B0bottom1"/>
    <trip id="343" depart="146.79" from="right1C1" to="A2left2"/>
    <trip id="344" depart="147.22" from="bottom2C0" to="C0right0"/>
    <trip id="345" depart="147.65" from="right2C2" to="B0bottom1"/>
    <trip id="346" depart="148.07" from="right2C2" to="C2top2"/>
    <trip id="347" depart="148.50" from="top0A2" to="C0bottom2"/>
    <trip id="348" depart="148.93" from="right1C1" to="C2top2"/>
    <trip id="349" depart="149.36" from="left1A1" to="B2top1"/>
    <trip id="350" depart="149.79" from="right1C1" to="C2right2"/>
    <trip id="351" depart="150.21" from="top0A2" to="A0bottom0"/>
    <trip id="352" depart="150.64" from="bottom1B0" to="A2left2"/>
    <trip id="353" depart="151.07" from="right2C2" to="B2top1"/>
    <trip id="354" depart="151.50" from="left0A0" to="A0left0"/>
    <trip id="355" depart="151.93" from="right2C2" to="C0right0"/>
    <trip id="356" depart="152.35" from="top2C2" to="B1B2"/>
    <trip id="357" depart="152.78" from="left2A2" to="A0bottom0"/>
    <trip id="358" depart="153.21" from="bottom0A0" to="B0bottom1"/>
    <trip id="359" depart="153.64" from="left0A0" to="A2B2"/>
    <trip id="360" depart="154.07" from="bottom0A0" to="C2top2"/>
    <trip id="361" depart="154.49" from="top0A2" to="B2top1"/>
    <trip id="362" depart="154.92" from="top2C2" to="C2top2"/>
    <trip id="363" depart="155.35" from="right1C1" to="A2left2"/>
    <trip id="364" depart="155.78" from="bottom0A0" to="C1right1"/>
    <trip id="365" depart="156.21" from="left2A2" to="C0bottom2"/>
    <trip id="366" depart="156.63" from="top1B2" to="A1left1"/>
    <trip id="367" depart="157.06" from="right0C0" to="C0bottom2"/>
    <trip id="368" depart="157.49" from="left2A2" to="A0left0"/>
    <trip id="369" depart="157.92" from="left1A1" to="A2top0"/>
    <trip id="370" depart="158.35" from="right1C1" to="C2right2"/>
    <trip id="371" depart="158.77" from="left0A0" to="C0right0"/>
    <trip id="372" depart="159.20" from="left0A0" to="C2top2"/>
    <trip id="373" depart="159.63" from="top0A2" to="B2top1"/>
    <trip id="374" depart="160.06" from="left2A2" to="A2left2"/>
    <trip id="375" depart="160.49" from="left0A0" to="C2top2"/>
    <trip id="376" depart="160.91" from="left1A1" to="B2top1"/>
    <trip id="377" depart="161.34" from="top2C2" to="C0bottom2"/>
    <trip id="378" depart="161.77" from="right0C0" to="A2top0"/>
    <trip id="379" depart="162.20" from="bottom2C0" to="A2top0"/>
    <trip id="380" depart="162.62" from="top0A2" to="C0bottom2"/>
    <trip id="381" depart="163.05" from="top0A2" to="A1left1"/>
    <trip id="382" depart="163.48" from="right0C0" to="C2top2"/>
    <trip id="383" depart="163.91" from="left2A2" to="C0right0"/>
    <trip id="384" depart="164.34" from="bottom1B0" to="C2top2"/>
    <trip id="385" depart="164.76" from="right1C1" to="A1left1"/>
    <trip id="386" depart="165.19" from="bottom1B0" to="B2top1"/>
    <trip id="387" depart="165.62" from="right0C0" to="A0left0"/>
    <trip id="388" depart="166.05" from="top2C2" to="C2right2"/>
    <trip id="389" depart="166.48" from="left2A2" to="A0left0"/>
    <trip id="390" depart="166.90" from="top0A2" to="B1A1"/>
    <trip id="391" depart="167.33" from="right2C2" to="B2top1"/>
    <trip id="392" depart="167.76" from="left0A0" to="C1right1"/>
    <trip id="393" depart="168.19" from="top2C2" to="A1left1"/>
    <trip id="394" depart="168.62" from="right0C0" to="A2top0"/>
    <trip id="395" depart="169.04" from="top2C2" to="B2top1"/>
    <trip id="396" depart="169.47" from="top1B2" to="C2right2"/>
    <trip id="397" depart="169.90" from="left0A0" to="C1right1"/>
    <trip id="398" depart="170.33" from="left1A1" to="C2top2"/>
    <trip id="399" depart="170.76" from="left2A2" to="C1right1"/>
    <trip id="400" depart="171.18" from="left0A0" to="A2left2"/>
    <trip id="401" depart="171.61" from="right0C0" to="C2top2"/>
    <trip id="402" depart="172.04" from="left2A2" to="A0left0"/>
    <trip id="403" depart="172.47" from="right0C0" to="A2top0"/>
    <trip id="404" depart="172.90" from="right0C0" to="B2top1"/>
    <trip id="405" depart="173.32" from="left2A2" to="A2left2"/>
    <trip id="406" depart="173.75" from="bottom2C0" to="C0right0"/>
    <trip id="407" depart="174.18" from="right0C0" to="A1left1"/>
    <trip id="408" depart="174.61" from="top0A2" to="A0bottom0"/>
    <trip id="409" depart="175.04" from="right2C2" to="C0right0"/>
    <trip id="410" depart="175.46" from="top0A2" to="A2top0"/>
    <trip id="411" depart="175.89" from="right1C1" to="C1right1"/>
    <trip id="412" depart="176.32" from="top2C2" to="B0bottom1"/>
    <trip id="413" depart="176.75" from="bottom0A0" to="B2A2"/>
    <trip id="414" depart="177.18" from="right0C0" to="C2right2"/>
    <trip id="415" depart="177.60" from="top1B2" to="B0bottom1"/>
    <trip id="416" depart="178.03" from="right0C0" to="B0bottom1"/>
    <trip id="417" depart="178.46" from="right2C2" to="A2top0"/>
    <trip id="418" depart="178.89" from="right1C1" to="A0left0"/>
    <trip id="419" depart="179.32" from="left2A2" to="C2top2"/>
    <trip id="420" depart="179.74" from="left0A0" to="C0right0"/>
    <trip id="421" depart="180.17" from="right1C1" to="C2right2"/>
    <trip id="422" depart="180.60" from="top1B2" to="C2right2"/>
    <trip id="423" depart="181.03" from="left1A1" to="A2left2"/>
    <trip id="424" depart="181.46" from="right2C2" to="C1right1"/>
    <trip id="425" depart="181.88" from="top1B2" to="A0bottom0"/>
    <trip id="426" depart="182.31" from="bottom0A0" to="C0bottom2"/>
    <trip id="427" depart="182.74" from="top2C2" to="C2top2"/>
    <trip id="428" depart="183.17" from="right2C2" to="B0bottom1"/>
    <trip id="429" depart="183.59" from="bottom0A0" to="C0bottom2"/>
    <trip id="430" depart="184.02" from="top1B2" to="B0bottom1"/>
    <trip id="431" depart="184.45" from="right2C2" to="C2right2"/>
    <trip id="432" depart="184.88" from="bottom0A0" to="C1right1"/>
    <trip id="433" depart="185.31" from="left0A0" to="A2top0"/>
    <trip id="434" depart="185.73" from="bottom1B0" to="B2top1"/>
    <trip id="435" depart="186.16" from="right0C0" to="C1right1"/>
    <trip id="436" depart="186.59" from="bottom1B0" to="A0bottom0"/>
    <trip id="437" depart="187.02" from="top1B2" to="C0bottom2"/>
    <trip id="438" depart="187.45" from="bottom2C0" to="C2right2"/>