<?xml version="1.0" encoding="UTF-8"?>

<!-- generated on 2023-11-04 20:29:48 by Eclipse SUMO netedit Version v1_18_0+1767-2a5073732ae
<configuration xmlns:xsi="http://www.w3.org/2001/XMLSchema-instance" xsi:noNamespaceSchemaLocation="http://sumo.dlr.de/xsd/neteditConfiguration.xsd">

    <input>
        <sumo-net-file value="/Users/rohitbokade/pytsc/pytsc/scenarios/sumo/3x3_sumo_grid/3x3_sumo_grid.net.xml"/>
    </input>

    <output>
        <output-file value="/Users/rohitbokade/pytsc/pytsc/scenarios/sumo/3x3_sumo_grid/3x3_sumo_grid.net.xml"/>
    </output>

    <processing>
        <geometry.min-radius.fix.railways value="false"/>
        <geometry.max-grade.fix value="false"/>
        <offset.disable-normalization value="true"/>
        <lefthand value="0"/>
    </processing>

    <junctions>
        <no-turnarounds value="true"/>
        <junctions.corner-detail value="5"/>
        <junctions.limit-turn-speed value="5.50"/>
        <rectangular-lane-cut value="0"/>
    </junctions>

    <pedestrian>
        <walkingareas value="0"/>
    </pedestrian>

</configuration>
-->

<net version="1.16" junctionCornerDetail="5" limitTurnSpeed="5.50" xmlns:xsi="http://www.w3.org/2001/XMLSchema-instance" xsi:noNamespaceSchemaLocation="http://sumo.dlr.de/xsd/net_file.xsd">

    <location netOffset="0.00,0.00" convBoundary="0.00,0.00,1200.00,1200.00" origBoundary="0.00,0.00,1200.00,1200.00" projParameter="!"/>

    <edge id=":A0_0" function="internal">
        <lane id=":A0_0_0" index="0" speed="6.51" length="9.03" shape="292.00,313.60 291.65,311.15 290.60,309.40 288.85,308.35 286.40,308.00"/>
    </edge>
    <edge id=":A0_1" function="internal">
        <lane id=":A0_1_0" index="0" speed="13.89" length="27.20" shape="292.00,313.60 292.00,286.40"/>
        <lane id=":A0_1_1" index="1" speed="13.89" length="27.20" shape="295.20,313.60 295.20,286.40"/>
        <lane id=":A0_1_2" index="2" speed="13.89" length="27.20" shape="298.40,313.60 298.40,286.40"/>
    </edge>
    <edge id=":A0_4" function="internal">
        <lane id=":A0_4_0" index="0" speed="10.36" length="5.01" shape="298.40,313.60 299.11,308.64"/>
    </edge>
    <edge id=":A0_20" function="internal">
        <lane id=":A0_20_0" index="0" speed="10.36" length="19.50" shape="299.11,308.64 299.35,306.95 302.20,302.20 306.95,299.35 313.60,298.40"/>
    </edge>
    <edge id=":A0_5" function="internal">
        <lane id=":A0_5_0" index="0" speed="6.51" length="9.03" shape="313.60,308.00 311.15,308.35 309.40,309.40 308.35,311.15 308.00,313.60"/>
    </edge>
    <edge id=":A0_6" function="internal">
        <lane id=":A0_6_0" index="0" speed="13.89" length="27.20" shape="313.60,308.00 286.40,308.00"/>
        <lane id=":A0_6_1" index="1" speed="13.89" length="27.20" shape="313.60,304.80 286.40,304.80"/>
        <lane id=":A0_6_2" index="2" speed="13.89" length="27.20" shape="313.60,301.60 286.40,301.60"/>
    </edge>
    <edge id=":A0_9" function="internal">
        <lane id=":A0_9_0" index="0" speed="10.36" length="5.01" shape="313.60,301.60 308.64,300.89"/>
    </edge>
    <edge id=":A0_21" function="internal">
        <lane id=":A0_21_0" index="0" speed="10.36" length="19.50" shape="308.64,300.89 306.95,300.65 302.20,297.80 299.35,293.05 298.40,286.40"/>
    </edge>
    <edge id=":A0_10" function="internal">
        <lane id=":A0_10_0" index="0" speed="6.51" length="9.03" shape="308.00,286.40 308.35,288.85 309.40,290.60 311.15,291.65 313.60,292.00"/>
    </edge>
    <edge id=":A0_11" function="internal">
        <lane id=":A0_11_0" index="0" speed="13.89" length="27.20" shape="308.00,286.40 308.00,313.60"/>
        <lane id=":A0_11_1" index="1" speed="13.89" length="27.20" shape="304.80,286.40 304.80,313.60"/>
        <lane id=":A0_11_2" index="2" speed="13.89" length="27.20" shape="301.60,286.40 301.60,313.60"/>
    </edge>
    <edge id=":A0_14" function="internal">
        <lane id=":A0_14_0" index="0" speed="10.36" length="5.01" shape="301.60,286.40 300.89,291.36"/>
    </edge>
    <edge id=":A0_22" function="internal">
        <lane id=":A0_22_0" index="0" speed="10.36" length="19.50" shape="300.89,291.36 300.65,293.05 297.80,297.80 293.05,300.65 286.40,301.60"/>
    </edge>
    <edge id=":A0_15" function="internal">
        <lane id=":A0_15_0" index="0" speed="6.51" length="9.03" shape="286.40,292.00 288.85,291.65 290.60,290.60 291.65,288.85 292.00,286.40"/>
    </edge>
    <edge id=":A0_16" function="internal">
        <lane id=":A0_16_0" index="0" speed="13.89" length="27.20" shape="286.40,292.00 313.60,292.00"/>
        <lane id=":A0_16_1" index="1" speed="13.89" length="27.20" shape="286.40,295.20 313.60,295.20"/>
        <lane id=":A0_16_2" index="2" speed="13.89" length="27.20" shape="286.40,298.40 313.60,298.40"/>
    </edge>
    <edge id=":A0_19" function="internal">
        <lane id=":A0_19_0" index="0" speed="10.36" length="5.01" shape="286.40,298.40 291.36,299.11"/>
    </edge>
    <edge id=":A0_23" function="internal">
        <lane id=":A0_23_0" index="0" speed="10.36" length="19.50" shape="291.36,299.11 293.05,299.35 297.80,302.20 300.65,306.95 301.60,313.60"/>
    </edge>
    <edge id=":A1_0" function="internal">
        <lane id=":A1_0_0" index="0" speed="6.51" length="9.03" shape="292.00,613.60 291.65,611.15 290.60,609.40 288.85,608.35 286.40,608.00"/>
    </edge>
    <edge id=":A1_1" function="internal">
        <lane id=":A1_1_0" index="0" speed="13.89" length="27.20" shape="292.00,613.60 292.00,586.40"/>
        <lane id=":A1_1_1" index="1" speed="13.89" length="27.20" shape="295.20,613.60 295.20,586.40"/>
        <lane id=":A1_1_2" index="2" speed="13.89" length="27.20" shape="298.40,613.60 298.40,586.40"/>
    </edge>
    <edge id=":A1_4" function="internal">
        <lane id=":A1_4_0" index="0" speed="10.36" length="5.01" shape="298.40,613.60 299.11,608.64"/>
    </edge>
    <edge id=":A1_20" function="internal">
        <lane id=":A1_20_0" index="0" speed="10.36" length="19.50" shape="299.11,608.64 299.35,606.95 302.20,602.20 306.95,599.35 313.60,598.40"/>
    </edge>
    <edge id=":A1_5" function="internal">
        <lane id=":A1_5_0" index="0" speed="6.51" length="9.03" shape="313.60,608.00 311.15,608.35 309.40,609.40 308.35,611.15 308.00,613.60"/>
    </edge>
    <edge id=":A1_6" function="internal">
        <lane id=":A1_6_0" index="0" speed="13.89" length="27.20" shape="313.60,608.00 286.40,608.00"/>
        <lane id=":A1_6_1" index="1" speed="13.89" length="27.20" shape="313.60,604.80 286.40,604.80"/>
        <lane id=":A1_6_2" index="2" speed="13.89" length="27.20" shape="313.60,601.60 286.40,601.60"/>
    </edge>
    <edge id=":A1_9" function="internal">
        <lane id=":A1_9_0" index="0" speed="10.36" length="5.01" shape="313.60,601.60 308.64,600.89"/>
    </edge>
    <edge id=":A1_21" function="internal">
        <lane id=":A1_21_0" index="0" speed="10.36" length="19.50" shape="308.64,600.89 306.95,600.65 302.20,597.80 299.35,593.05 298.40,586.40"/>
    </edge>
    <edge id=":A1_10" function="internal">
        <lane id=":A1_10_0" index="0" speed="6.51" length="9.03" shape="308.00,586.40 308.35,588.85 309.40,590.60 311.15,591.65 313.60,592.00"/>
    </edge>
    <edge id=":A1_11" function="internal">
        <lane id=":A1_11_0" index="0" speed="13.89" length="27.20" shape="308.00,586.40 308.00,613.60"/>
        <lane id=":A1_11_1" index="1" speed="13.89" length="27.20" shape="304.80,586.40 304.80,613.60"/>
        <lane id=":A1_11_2" index="2" speed="13.89" length="27.20" shape="301.60,586.40 301.60,613.60"/>
    </edge>
    <edge id=":A1_14" function="internal">
        <lane id=":A1_14_0" index="0" speed="10.36" length="5.01" shape="301.60,586.40 300.89,591.36"/>
    </edge>
    <edge id=":A1_22" function="internal">
        <lane id=":A1_22_0" index="0" speed="10.36" length="19.50" shape="300.89,591.36 300.65,593.05 297.80,597.80 293.05,600.65 286.40,601.60"/>
    </edge>
    <edge id=":A1_15" function="internal">
        <lane id=":A1_15_0" index="0" speed="6.51" length="9.03" shape="286.40,592.00 288.85,591.65 290.60,590.60 291.65,588.85 292.00,586.40"/>
    </edge>
    <edge id=":A1_16" function="internal">
        <lane id=":A1_16_0" index="0" speed="13.89" length="27.20" shape="286.40,592.00 313.60,592.00"/>
        <lane id=":A1_16_1" index="1" speed="13.89" length="27.20" shape="286.40,595.20 313.60,595.20"/>
        <lane id=":A1_16_2" index="2" speed="13.89" length="27.20" shape="286.40,598.40 313.60,598.40"/>
    </edge>
    <edge id=":A1_19" function="internal">
        <lane id=":A1_19_0" index="0" speed="10.36" length="5.01" shape="286.40,598.40 291.36,599.11"/>
    </edge>
    <edge id=":A1_23" function="internal">
        <lane id=":A1_23_0" index="0" speed="10.36" length="19.50" shape="291.36,599.11 293.05,599.35 297.80,602.20 300.65,606.95 301.60,613.60"/>
    </edge>
    <edge id=":A2_0" function="internal">
        <lane id=":A2_0_0" index="0" speed="6.51" length="9.03" shape="292.00,913.60 291.65,911.15 290.60,909.40 288.85,908.35 286.40,908.00"/>
    </edge>
    <edge id=":A2_1" function="internal">
        <lane id=":A2_1_0" index="0" speed="13.89" length="27.20" shape="292.00,913.60 292.00,886.40"/>
        <lane id=":A2_1_1" index="1" speed="13.89" length="27.20" shape="295.20,913.60 295.20,886.40"/>
        <lane id=":A2_1_2" index="2" speed="13.89" length="27.20" shape="298.40,913.60 298.40,886.40"/>
    </edge>
    <edge id=":A2_4" function="internal">
        <lane id=":A2_4_0" index="0" speed="10.36" length="5.01" shape="298.40,913.60 299.11,908.64"/>
    </edge>
    <edge id=":A2_20" function="internal">
        <lane id=":A2_20_0" index="0" speed="10.36" length="19.50" shape="299.11,908.64 299.35,906.95 302.20,902.20 306.95,899.35 313.60,898.40"/>
    </edge>
    <edge id=":A2_5" function="internal">
        <lane id=":A2_5_0" index="0" speed="6.51" length="9.03" shape="313.60,908.00 311.15,908.35 309.40,909.40 308.35,911.15 308.00,913.60"/>
    </edge>
    <edge id=":A2_6" function="internal">
        <lane id=":A2_6_0" index="0" speed="13.89" length="27.20" shape="313.60,908.00 286.40,908.00"/>
        <lane id=":A2_6_1" index="1" speed="13.89" length="27.20" shape="313.60,904.80 286.40,904.80"/>
        <lane id=":A2_6_2" index="2" speed="13.89" length="27.20" shape="313.60,901.60 286.40,901.60"/>
    </edge>
    <edge id=":A2_9" function="internal">
        <lane id=":A2_9_0" index="0" speed="10.36" length="5.01" shape="313.60,901.60 308.64,900.89"/>
    </edge>
    <edge id=":A2_21" function="internal">
        <lane id=":A2_21_0" index="0" speed="10.36" length="19.50" shape="308.64,900.89 306.95,900.65 302.20,897.80 299.35,893.05 298.40,886.40"/>
    </edge>
    <edge id=":A2_10" function="internal">
        <lane id=":A2_10_0" index="0" speed="6.51" length="9.03" shape="308.00,886.40 308.35,888.85 309.40,890.60 311.15,891.65 313.60,892.00"/>
    </edge>
    <edge id=":A2_11" function="internal">
        <lane id=":A2_11_0" index="0" speed="13.89" length="27.20" shape="308.00,886.40 308.00,913.60"/>
        <lane id=":A2_11_1" index="1" speed="13.89" length="27.20" shape="304.80,886.40 304.80,913.60"/>
        <lane id=":A2_11_2" index="2" speed="13.89" length="27.20" shape="301.60,886.40 301.60,913.60"/>
    </edge>
    <edge id=":A2_14" function="internal">
        <lane id=":A2_14_0" index="0" speed="10.36" length="5.01" shape="301.60,886.40 300.89,891.36"/>
    </edge>
    <edge id=":A2_22" function="internal">
        <lane id=":A2_22_0" index="0" speed="10.36" length="19.50" shape="300.89,891.36 300.65,893.05 297.80,897.80 293.05,900.65 286.40,901.60"/>
    </edge>
    <edge id=":A2_15" function="internal">
        <lane id=":A2_15_0" index="0" speed="6.51" length="9.03" shape="286.40,892.00 288.85,891.65 290.60,890.60 291.65,888.85 292.00,886.40"/>
    </edge>
    <edge id=":A2_16" function="internal">
        <lane id=":A2_16_0" index="0" speed="13.89" length="27.20" shape="286.40,892.00 313.60,892.00"/>
        <lane id=":A2_16_1" index="1" speed="13.89" length="27.20" shape="286.40,895.20 313.60,895.20"/>
        <lane id=":A2_16_2" index="2" speed="13.89" length="27.20" shape="286.40,898.40 313.60,898.40"/>
    </edge>
    <edge id=":A2_19" function="internal">
        <lane id=":A2_19_0" index="0" speed="10.36" length="5.01" shape="286.40,898.40 291.36,899.11"/>
    </edge>
    <edge id=":A2_23" function="internal">
        <lane id=":A2_23_0" index="0" speed="10.36" length="19.50" shape="291.36,899.11 293.05,899.35 297.80,902.20 300.65,906.95 301.60,913.60"/>
    </edge>
    <edge id=":B0_0" function="internal">
        <lane id=":B0_0_0" index="0" speed="6.51" length="9.03" shape="592.00,313.60 591.65,311.15 590.60,309.40 588.85,308.35 586.40,308.00"/>
    </edge>
    <edge id=":B0_1" function="internal">
        <lane id=":B0_1_0" index="0" speed="13.89" length="27.20" shape="592.00,313.60 592.00,286.40"/>
        <lane id=":B0_1_1" index="1" speed="13.89" length="27.20" shape="595.20,313.60 595.20,286.40"/>
        <lane id=":B0_1_2" index="2" speed="13.89" length="27.20" shape="598.40,313.60 598.40,286.40"/>
    </edge>
    <edge id=":B0_4" function="internal">
        <lane id=":B0_4_0" index="0" speed="10.36" length="5.01" shape="598.40,313.60 599.11,308.64"/>
    </edge>
    <edge id=":B0_20" function="internal">
        <lane id=":B0_20_0" index="0" speed="10.36" length="19.50" shape="599.11,308.64 599.35,306.95 602.20,302.20 606.95,299.35 613.60,298.40"/>
    </edge>
    <edge id=":B0_5" function="internal">
        <lane id=":B0_5_0" index="0" speed="6.51" length="9.03" shape="613.60,308.00 611.15,308.35 609.40,309.40 608.35,311.15 608.00,313.60"/>
    </edge>
    <edge id=":B0_6" function="internal">
        <lane id=":B0_6_0" index="0" speed="13.89" length="27.20" shape="613.60,308.00 586.40,308.00"/>
        <lane id=":B0_6_1" index="1" speed="13.89" length="27.20" shape="613.60,304.80 586.40,304.80"/>
        <lane id=":B0_6_2" index="2" speed="13.89" length="27.20" shape="613.60,301.60 586.40,301.60"/>
    </edge>
    <edge id=":B0_9" function="internal">
        <lane id=":B0_9_0" index="0" speed="10.36" length="5.01" shape="613.60,301.60 608.64,300.89"/>
    </edge>
    <edge id=":B0_21" function="internal">
        <lane id=":B0_21_0" index="0" speed="10.36" length="19.50" shape="608.64,300.89 606.95,300.65 602.20,297.80 599.35,293.05 598.40,286.40"/>
    </edge>
    <edge id=":B0_10" function="internal">
        <lane id=":B0_10_0" index="0" speed="6.51" length="9.03" shape="608.00,286.40 608.35,288.85 609.40,290.60 611.15,291.65 613.60,292.00"/>
    </edge>
    <edge id=":B0_11" function="internal">
        <lane id=":B0_11_0" index="0" speed="13.89" length="27.20" shape="608.00,286.40 608.00,313.60"/>
        <lane id=":B0_11_1" index="1" speed="13.89" length="27.20" shape="604.80,286.40 604.80,313.60"/>
        <lane id=":B0_11_2" index="2" speed="13.89" length="27.20" shape="601.60,286.40 601.60,313.60"/>
    </edge>
    <edge id=":B0_14" function="internal">
        <lane id=":B0_14_0" index="0" speed="10.36" length="5.01" shape="601.60,286.40 600.89,291.36"/>
    </edge>
    <edge id=":B0_22" function="internal">
        <lane id=":B0_22_0" index="0" speed="10.36" length="19.50" shape="600.89,291.36 600.65,293.05 597.80,297.80 593.05,300.65 586.40,301.60"/>
    </edge>
    <edge id=":B0_15" function="internal">
        <lane id=":B0_15_0" index="0" speed="6.51" length="9.03" shape="586.40,292.00 588.85,291.65 590.60,290.60 591.65,288.85 592.00,286.40"/>
    </edge>
    <edge id=":B0_16" function="internal">
        <lane id=":B0_16_0" index="0" speed="13.89" length="27.20" shape="586.40,292.00 613.60,292.00"/>
        <lane id=":B0_16_1" index="1" speed="13.89" length="27.20" shape="586.40,295.20 613.60,295.20"/>
        <lane id=":B0_16_2" index="2" speed="13.89" length="27.20" shape="586.40,298.40 613.60,298.40"/>
    </edge>
    <edge id=":B0_19" function="internal">
        <lane id=":B0_19_0" index="0" speed="10.36" length="5.01" shape="586.40,298.40 591.36,299.11"/>
    </edge>
    <edge id=":B0_23" function="internal">
        <lane id=":B0_23_0" index="0" speed="10.36" length="19.50" shape="591.36,299.11 593.05,299.35 597.80,302.20 600.65,306.95 601.60,313.60"/>
    </edge>
    <edge id=":B1_0" function="internal">
        <lane id=":B1_0_0" index="0" speed="6.51" length="9.03" shape="592.00,613.60 591.65,611.15 590.60,609.40 588.85,608.35 586.40,608.00"/>
    </edge>
    <edge id=":B1_1" function="internal">
        <lane id=":B1_1_0" index="0" speed="13.89" length="27.20" shape="592.00,613.60 592.00,586.40"/>
        <lane id=":B1_1_1" index="1" speed="13.89" length="27.20" shape="595.20,613.60 595.20,586.40"/>
        <lane id=":B1_1_2" index="2" speed="13.89" length="27.20" shape="598.40,613.60 598.40,586.40"/>
    </edge>
    <edge id=":B1_4" function="internal">
        <lane id=":B1_4_0" index="0" speed="10.36" length="5.01" shape="598.40,613.60 599.11,608.64"/>
    </edge>
    <edge id=":B1_20" function="internal">
        <lane id=":B1_20_0" index="0" speed="10.36" length="19.50" shape="599.11,608.64 599.35,606.95 602.20,602.20 606.95,599.35 613.60,598.40"/>
    </edge>
    <edge id=":B1_5" function="internal">
        <lane id=":B1_5_0" index="0" speed="6.51" length="9.03" shape="613.60,608.00 611.15,608.35 609.40,609.40 608.35,611.15 608.00,613.60"/>
    </edge>
    <edge id=":B1_6" function="internal">
        <lane id=":B1_6_0" index="0" speed="13.89" length="27.20" shape="613.60,608.00 586.40,608.00"/>
        <lane id=":B1_6_1" index="1" speed="13.89" length="27.20" shape="613.60,604.80 586.40,604.80"/>
        <lane id=":B1_6_2" index="2" speed="13.89" length="27.20" shape="613.60,601.60 586.40,601.60"/>
    </edge>
    <edge id=":B1_9" function="internal">
        <lane id=":B1_9_0" index="0" speed="10.36" length="5.01" shape="613.60,601.60 608.64,600.89"/>
    </edge>
    <edge id=":B1_21" function="internal">
        <lane id=":B1_21_0" index="0" speed="10.36" length="19.50" shape="608.64,600.89 606.95,600.65 602.20,597.80 599.35,593.05 598.40,586.40"/>
    </edge>
    <edge id=":B1_10" function="internal">
        <lane id=":B1_10_0" index="0" speed="6.51" length="9.03" shape="608.00,586.40 608.35,588.85 609.40,590.60 611.15,591.65 613.60,592.00"/>
    </edge>
    <edge id=":B1_11" function="internal">
        <lane id=":B1_11_0" index="0" speed="13.89" length="27.20" shape="608.00,586.40 608.00,613.60"/>
        <lane id=":B1_11_1" index="1" speed="13.89" length="27.20" shape="604.80,586.40 604.80,613.60"/>
        <lane id=":B1_11_2" index="2" speed="13.89" length="27.20" shape="601.60,586.40 601.60,613.60"/>
    </edge>
    <edge id=":B1_14" function="internal">
        <lane id=":B1_14_0" index="0" speed="10.36" length="5.01" shape="601.60,586.40 600.89,591.36"/>
    </edge>
    <edge id=":B1_22" function="internal">
        <lane id=":B1_22_0" index="0" speed="10.36" length="19.50" shape="600.89,591.36 600.65,593.05 597.80,597.80 593.05,600.65 586.40,601.60"/>
    </edge>
    <edge id=":B1_15" function="internal">
        <lane id=":B1_15_0" index="0" speed="6.51" length="9.03" shape="586.40,592.00 588.85,591.65 590.60,590.60 591.65,588.85 592.00,586.40"/>
    </edge>
    <edge id=":B1_16" function="internal">
        <lane id=":B1_16_0" index="0" speed="13.89" length="27.20" shape="586.40,592.00 613.60,592.00"/>
        <lane id=":B1_16_1" index="1" speed="13.89" length="27.20" shape="586.40,595.20 613.60,595.20"/>
        <lane id=":B1_16_2" index="2" speed="13.89" length="27.20" shape="586.40,598.40 613.60,598.40"/>
    </edge>
    <edge id=":B1_19" function="internal">
        <lane id=":B1_19_0" index="0" speed="10.36" length="5.01" shape="586.40,598.40 591.36,599.11"/>
    </edge>
    <edge id=":B1_23" function="internal">
        <lane id=":B1_23_0" index="0" speed="10.36" length="19.50" shape="591.36,599.11 593.05,599.35 597.80,602.20 600.65,606.95 601.60,613.60"/>
    </edge>
    <edge id=":B2_0" function="internal">
        <lane id=":B2_0_0" index="0" speed="6.51" length="9.03" shape="592.00,913.60 591.65,911.15 590.60,909.40 588.85,908.35 586.40,908.00"/>
    </edge>
    <edge id=":B2_1" function="internal">
        <lane id=":B2_1_0" index="0" speed="13.89" length="27.20" shape="592.00,913.60 592.00,886.40"/>
        <lane id=":B2_1_1" index="1" speed="13.89" length="27.20" shape="595.20,913.60 595.20,886.40"/>
        <lane id=":B2_1_2" index="2" speed="13.89" length="27.20" shape="598.40,913.60 598.40,886.40"/>
    </edge>
    <edge id=":B2_4" function="internal">
        <lane id=":B2_4_0" index="0" speed="10.36" length="5.01" shape="598.40,913.60 599.11,908.64"/>
    </edge>
    <edge id=":B2_20" function="internal">
        <lane id=":B2_20_0" index="0" speed="10.36" length="19.50" shape="599.11,908.64 599.35,906.95 602.20,902.20 606.95,899.35 613.60,898.40"/>
    </edge>
    <edge id=":B2_5" function="internal">
        <lane id=":B2_5_0" index="0" speed="6.51" length="9.03" shape="613.60,908.00 611.15,908.35 609.40,909.40 608.35,911.15 608.00,913.60"/>
    </edge>
    <edge id=":B2_6" function="internal">
        <lane id=":B2_6_0" index="0" speed="13.89" length="27.20" shape="613.60,908.00 586.40,908.00"/>
        <lane id=":B2_6_1" index="1" speed="13.89" length="27.20" shape="613.60,904.80 586.40,904.80"/>
        <lane id=":B2_6_2" index="2" speed="13.89" length="27.20" shape="613.60,901.60 586.40,901.60"/>
    </edge>
    <edge id=":B2_9" function="internal">
        <lane id=":B2_9_0" index="0" speed="10.36" length="5.01" shape="613.60,901.60 608.64,900.89"/>
    </edge>
    <edge id=":B2_21" function="internal">
        <lane id=":B2_21_0" index="0" speed="10.36" length="19.50" shape="608.64,900.89 606.95,900.65 602.20,897.80 599.35,893.05 598.40,886.40"/>
    </edge>
    <edge id=":B2_10" function="internal">
        <lane id=":B2_10_0" index="0" speed="6.51" length="9.03" shape="608.00,886.40 608.35,888.85 609.40,890.60 611.15,891.65 613.60,892.00"/>
    </edge>
    <edge id=":B2_11" function="internal">
        <lane id=":B2_11_0" index="0" speed="13.89" length="27.20" shape="608.00,886.40 608.00,913.60"/>
        <lane id=":B2_11_1" index="1" speed="13.89" length="27.20" shape="604.80,886.40 604.80,913.60"/>
        <lane id=":B2_11_2" index="2" speed="13.89" length="27.20" shape="601.60,886.40 601.60,913.60"/>
    </edge>
    <edge id=":B2_14" function="internal">
        <lane id=":B2_14_0" index="0" speed="10.36" length="5.01" shape="601.60,886.40 600.89,891.36"/>
    </edge>
    <edge id=":B2_22" function="internal">
        <lane id=":B2_22_0" index="0" speed="10.36" length="19.50" shape="600.89,891.36 600.65,893.05 597.80,897.80 593.05,900.65 586.40,901.60"/>
    </edge>
    <edge id=":B2_15" function="internal">
        <lane id=":B2_15_0" index="0" speed="6.51" length="9.03" shape="586.40,892.00 588.85,891.65 590.60,890.60 591.65,888.85 592.00,886.40"/>
    </edge>
    <edge id=":B2_16" function="internal">
        <lane id=":B2_16_0" index="0" speed="13.89" length="27.20" shape="586.40,892.00 613.60,892.00"/>
        <lane id=":B2_16_1" index="1" speed="13.89" length="27.20" shape="586.40,895.20 613.60,895.20"/>
        <lane id=":B2_16_2" index="2" speed="13.89" length="27.20" shape="586.40,898.40 613.60,898.40"/>
    </edge>
    <edge id=":B2_19" function="internal">
        <lane id=":B2_19_0" index="0" speed="10.36" length="5.01" shape="586.40,898.40 591.36,899.11"/>
    </edge>
    <edge id=":B2_23" function="internal">
        <lane id=":B2_23_0" index="0" speed="10.36" length="19.50" shape="591.36,899.11 593.05,899.35 597.80,902.20 600.65,906.95 601.60,913.60"/>
    </edge>
    <edge id=":C0_0" function="internal">
        <lane id=":C0_0_0" index="0" speed="6.51" length="9.03" shape="892.00,313.60 891.65,311.15 890.60,309.40 888.85,308.35 886.40,308.00"/>
    </edge>
    <edge id=":C0_1" function="internal">
        <lane id=":C0_1_0" index="0" speed="13.89" length="27.20" shape="892.00,313.60 892.00,286.40"/>
        <lane id=":C0_1_1" index="1" speed="13.89" length="27.20" shape="895.20,313.60 895.20,286.40"/>
        <lane id=":C0_1_2" index="2" speed="13.89" length="27.20" shape="898.40,313.60 898.40,286.40"/>
    </edge>
    <edge id=":C0_4" function="internal">
        <lane id=":C0_4_0" index="0" speed="10.36" length="5.01" shape="898.40,313.60 899.11,308.64"/>
    </edge>
    <edge id=":C0_20" function="internal">
        <lane id=":C0_20_0" index="0" speed="10.36" length="19.50" shape="899.11,308.64 899.35,306.95 902.20,302.20 906.95,299.35 913.60,298.40"/>
    </edge>
    <edge id=":C0_5" function="internal">
        <lane id=":C0_5_0" index="0" speed="6.51" length="9.03" shape="913.60,308.00 911.15,308.35 909.40,309.40 908.35,311.15 908.00,313.60"/>
    </edge>
    <edge id=":C0_6" function="internal">
        <lane id=":C0_6_0" index="0" speed="13.89" length="27.20" shape="913.60,308.00 886.40,308.00"/>
        <lane id=":C0_6_1" index="1" speed="13.89" length="27.20" shape="913.60,304.80 886.40,304.80"/>
        <lane id=":C0_6_2" index="2" speed="13.89" length="27.20" shape="913.60,301.60 886.40,301.60"/>
    </edge>
    <edge id=":C0_9" function="internal">
        <lane id=":C0_9_0" index="0" speed="10.36" length="5.01" shape="913.60,301.60 908.64,300.89"/>
    </edge>
    <edge id=":C0_21" function="internal">
        <lane id=":C0_21_0" index="0" speed="10.36" length="19.50" shape="908.64,300.89 906.95,300.65 902.20,297.80 899.35,293.05 898.40,286.40"/>
    </edge>
    <edge id=":C0_10" function="internal">
        <lane id=":C0_10_0" index="0" speed="6.51" length="9.03" shape="908.00,286.40 908.35,288.85 909.40,290.60 911.15,291.65 913.60,292.00"/>
    </edge>
    <edge id=":C0_11" function="internal">
        <lane id=":C0_11_0" index="0" speed="13.89" length="27.20" shape="908.00,286.40 908.00,313.60"/>
        <lane id=":C0_11_1" index="1" speed="13.89" length="27.20" shape="904.80,286.40 904.80,313.60"/>
        <lane id=":C0_11_2" index="2" speed="13.89" length="27.20" shape="901.60,286.40 901.60,313.60"/>
    </edge>
    <edge id=":C0_14" function="internal">
        <lane id=":C0_14_0" index="0" speed="10.36" length="5.01" shape="901.60,286.40 900.89,291.36"/>
    </edge>
    <edge id=":C0_22" function="internal">
        <lane id=":C0_22_0" index="0" speed="10.36" length="19.50" shape="900.89,291.36 900.65,293.05 897.80,297.80 893.05,300.65 886.40,301.60"/>
    </edge>
    <edge id=":C0_15" function="internal">
        <lane id=":C0_15_0" index="0" speed="6.51" length="9.03" shape="886.40,292.00 888.85,291.65 890.60,290.60 891.65,288.85 892.00,286.40"/>
    </edge>
    <edge id=":C0_16" function="internal">
        <lane id=":C0_16_0" index="0" speed="13.89" length="27.20" shape="886.40,292.00 913.60,292.00"/>
        <lane id=":C0_16_1" index="1" speed="13.89" length="27.20" shape="886.40,295.20 913.60,295.20"/>
        <lane id=":C0_16_2" index="2" speed="13.89" length="27.20" shape="886.40,298.40 913.60,298.40"/>
    </edge>
    <edge id=":C0_19" function="internal">
        <lane id=":C0_19_0" index="0" speed="10.36" length="5.01" shape="886.40,298.40 891.36,299.11"/>
    </edge>
    <edge id=":C0_23" function="internal">
        <lane id=":C0_23_0" index="0" speed="10.36" length="19.50" shape="891.36,299.11 893.05,299.35 897.80,302.20 900.65,306.95 901.60,313.60"/>
    </edge>
    <edge id=":C1_0" function="internal">
        <lane id=":C1_0_0" index="0" speed="6.51" length="9.03" shape="892.00,613.60 891.65,611.15 890.60,609.40 888.85,608.35 886.40,608.00"/>
    </edge>
    <edge id=":C1_1" function="internal">
        <lane id=":C1_1_0" index="0" speed="13.89" length="27.20" shape="892.00,613.60 892.00,586.40"/>
        <lane id=":C1_1_1" index="1" speed="13.89" length="27.20" shape="895.20,613.60 895.20,586.40"/>
        <lane id=":C1_1_2" index="2" speed="13.89" length="27.20" shape="898.40,613.60 898.40,586.40"/>
    </edge>
    <edge id=":C1_4" function="internal">
        <lane id=":C1_4_0" index="0" speed="10.36" length="5.01" shape="898.40,613.60 899.11,608.64"/>
    </edge>
    <edge id=":C1_20" function="internal">
        <lane id=":C1_20_0" index="0" speed="10.36" length="19.50" shape="899.11,608.64 899.35,606.95 902.20,602.20 906.95,599.35 913.60,598.40"/>
    </edge>
    <edge id=":C1_5" function="internal">
        <lane id=":C1_5_0" index="0" speed="6.51" length="9.03" shape="913.60,608.00 911.15,608.35 909.40,609.40 908.35,611.15 908.00,613.60"/>
    </edge>
    <edge id=":C1_6" function="internal">
        <lane id=":C1_6_0" index="0" speed="13.89" length="27.20" shape="913.60,608.00 886.40,608.00"/>
        <lane id=":C1_6_1" index="1" speed="13.89" length="27.20" shape="913.60,604.80 886.40,604.80"/>
        <lane id=":C1_6_2" index="2" speed="13.89" length="27.20" shape="913.60,601.60 886.40,601.60"/>
    </edge>
    <edge id=":C1_9" function="internal">
        <lane id=":C1_9_0" index="0" speed="10.36" length="5.01" shape="913.60,601.60 908.64,600.89"/>
    </edge>
    <edge id=":C1_21" function="internal">
        <lane id=":C1_21_0" index="0" speed="10.36" length="19.50" shape="908.64,600.89 906.95,600.65 902.20,597.80 899.35,593.05 898.40,586.40"/>
    </edge>
    <edge id=":C1_10" function="internal">
        <lane id=":C1_10_0" index="0" speed="6.51" length="9.03" shape="908.00,586.40 908.35,588.85 909.40,590.60 911.15,591.65 913.60,592.00"/>
    </edge>
    <edge id=":C1_11" function="internal">
        <lane id=":C1_11_0" index="0" speed="13.89" length="27.20" shape="908.00,586.40 908.00,613.60"/>
        <lane id=":C1_11_1" index="1" speed="13.89" length="27.20" shape="904.80,586.40 904.80,613.60"/>
        <lane id=":C1_11_2" index="2" speed="13.89" length="27.20" shape="901.60,586.40 901.60,613.60"/>
    </edge>
    <edge id=":C1_14" function="internal">
        <lane id=":C1_14_0" index="0" speed="10.36" length="5.01" shape="901.60,586.40 900.89,591.36"/>
    </edge>
    <edge id=":C1_22" function="internal">