<?xml version='1.0' encoding='UTF-8'?>
<configuration>
  <input>
    <net-file value="3x3_sumo_grid.net.xml"/>
    <route-files value="3x3_sumo_grid.rou.alt.xml"/>
    <additional-files value="3x3_sumo_grid.add.xml"/>
  </input>
  <time>
    <begin value="0"/>
    <end value="3600"/>
  </time>
  <report>
    <verbose value="true"/>
    <no-step-log value="true"/>
  </report>
</configuration>
