<?xml version="1.0" encoding="UTF-8"?>

<!-- generated on 2023-08-19 18:11:02.450072 by tlsCoordinator.py v1_16_0+2169-ea5cfde03db
<configuration>
    <net-file value="1x2_regular_grid.net.xml"/>
    <output-file value="1x2_regular_grid_tls_offsets.add.xml"/>
    <route-file value="1x2_regular_grid.rou.xml"/>
</configuration>
-->

<additional xmlns:xsi="http://www.w3.org/2001/XMLSchema-instance" xsi:noNamespaceSchemaLocation="http://sumo.dlr.de/xsd/additional_file.xsd">
    <tlLogic id="A0" programID="0" offset="0.00"/>
    <tlLogic id="B0" programID="0" offset="11.10"/>
</additional>
