<?xml version="1.0" encoding="UTF-8"?>

<!-- generated on 2025-03-14 13:34:39 by Eclipse SUMO netedit Version 1.20.0
<configuration xmlns:xsi="http://www.w3.org/2001/XMLSchema-instance" xsi:noNamespaceSchemaLocation="http://sumo.dlr.de/xsd/neteditConfiguration.xsd">

    <input>
        <sumo-net-file value="/Volumes/Crucial_X6/repos/pytsc/pytsc/scenarios/sumo/random_grid_singles/random_grid_2.net.xml"/>
    </input>

    <output>
        <output-file value="/Volumes/Crucial_X6/repos/pytsc/pytsc/scenarios/sumo/random_grid_singles/random_grid_2.net.xml"/>
    </output>

    <processing>
        <geometry.min-radius.fix.railways value="false"/>
        <geometry.max-grade.fix value="false"/>
        <offset.disable-normalization value="true"/>
        <lefthand value="0"/>
    </processing>

    <junctions>
        <no-turnarounds value="true"/>
        <junctions.corner-detail value="5"/>
        <junctions.limit-turn-speed value="5.50"/>
        <rectangular-lane-cut value="0"/>
    </junctions>

    <pedestrian>
        <walkingareas value="0"/>
    </pedestrian>

</configuration>
-->

<net version="1.20" junctionCornerDetail="5" limitTurnSpeed="5.50" xmlns:xsi="http://www.w3.org/2001/XMLSchema-instance" xsi:noNamespaceSchemaLocation="http://sumo.dlr.de/xsd/net_file.xsd">

    <location netOffset="2000.00,1800.00" convBoundary="1800.00,1600.00,2000.00,2200.00" origBoundary="-2000.00,-1800.00,800.00,1200.00" projParameter="!"/>

    <edge id=":10_0" function="internal">
        <lane id=":10_0_0" index="0" speed="13.89" length="20.80" shape="1795.20,1810.40 1795.20,1789.60"/>
        <lane id=":10_0_1" index="1" speed="13.89" length="20.80" shape="1798.40,1810.40 1798.40,1789.60"/>
    </edge>
    <edge id=":10_2" function="internal">
        <lane id=":10_2_0" index="0" speed="9.26" length="5.01" shape="1798.40,1810.40 1799.11,1805.44"/>
    </edge>
    <edge id=":10_3" function="internal">
        <lane id=":10_3_0" index="0" speed="3.65" length="1.44" shape="1798.40,1810.40 1799.20,1809.20"/>
    </edge>
    <edge id=":10_12" function="internal">
        <lane id=":10_12_0" index="0" speed="9.26" length="14.34" shape="1799.11,1805.44 1799.15,1805.15 1801.40,1801.40 1805.15,1799.15 1810.40,1798.40"/>
    </edge>
    <edge id=":10_13" function="internal">
        <lane id=":10_13_0" index="0" speed="3.65" length="3.23" shape="1799.20,1809.20 1800.00,1808.80 1800.80,1809.20 1801.60,1810.40"/>
    </edge>
    <edge id=":10_4" function="internal">
        <lane id=":10_4_0" index="0" speed="6.51" length="9.03" shape="1810.40,1804.80 1807.95,1805.15 1806.20,1806.20 1805.15,1807.95 1804.80,1810.40"/>
        <lane id=":10_4_1" index="1" speed="8.00" length="14.19" shape="1810.40,1801.60 1806.55,1802.15 1803.80,1803.80 1802.15,1806.55 1801.60,1810.40"/>
    </edge>
    <edge id=":10_6" function="internal">
        <lane id=":10_6_0" index="0" speed="9.26" length="19.35" shape="1810.40,1801.60 1805.15,1800.85 1801.40,1798.60 1799.15,1794.85 1798.40,1789.60"/>
    </edge>
    <edge id=":10_7" function="internal">
        <lane id=":10_7_0" index="0" speed="3.65" length="2.34" shape="1810.40,1801.60 1809.20,1800.80 1808.80,1800.00"/>
    </edge>
    <edge id=":10_14" function="internal">
        <lane id=":10_14_0" index="0" speed="3.65" length="2.34" shape="1808.80,1800.00 1809.20,1799.20 1810.40,1798.40"/>
    </edge>
    <edge id=":10_8" function="internal">
        <lane id=":10_8_0" index="0" speed="6.51" length="9.03" shape="1804.80,1789.60 1805.15,1792.05 1806.20,1793.80 1807.95,1794.85 1810.40,1795.20"/>
    </edge>
    <edge id=":10_9" function="internal">
        <lane id=":10_9_0" index="0" speed="13.89" length="20.80" shape="1804.80,1789.60 1804.80,1810.40"/>
        <lane id=":10_9_1" index="1" speed="13.89" length="20.80" shape="1801.60,1789.60 1801.60,1810.40"/>
    </edge>
    <edge id=":10_11" function="internal">
        <lane id=":10_11_0" index="0" speed="3.65" length="1.44" shape="1801.60,1789.60 1800.80,1790.80"/>
    </edge>
    <edge id=":10_15" function="internal">
        <lane id=":10_15_0" index="0" speed="3.65" length="3.23" shape="1800.80,1790.80 1800.00,1791.20 1799.20,1790.80 1798.40,1789.60"/>
    </edge>

    <edge id="-11" from="10" to="1" priority="-1">
        <lane id="-11_0" index="0" speed="13.89" length="189.60" shape="1810.40,1795.20 2000.00,1795.20"/>
        <lane id="-11_1" index="1" speed="13.89" length="189.60" shape="1810.40,1798.40 2000.00,1798.40"/>
    </edge>
    <edge id="-258" from="257" to="10" priority="-1">
        <lane id="-258_0" index="0" speed="13.89" length="389.60" shape="1795.20,2200.00 1795.20,1810.40"/>
        <lane id="-258_1" index="1" speed="13.89" length="389.60" shape="1798.40,2200.00 1798.40,1810.40"/>
    </edge>
    <edge id="-515" from="514" to="10" priority="-1">
        <lane id="-515_0" index="0" speed="13.89" length="189.60" shape="1804.80,1600.00 1804.80,1789.60"/>
        <lane id="-515_1" index="1" speed="13.89" length="189.60" shape="1801.60,1600.00 1801.60,1789.60"/>
    </edge>
    <edge id="11" from="1" to="10" priority="-1">
        <lane id="11_0" index="0" speed="13.89" length="189.60" shape="2000.00,1804.80 1810.40,1804.80"/>
        <lane id="11_1" index="1" speed="13.89" length="189.60" shape="2000.00,1801.60 1810.40,1801.60"/>
    </edge>
    <edge id="258" from="10" to="257" priority="-1">
        <lane id="258_0" index="0" speed="13.89" length="389.60" shape="1804.80,1810.40 1804.80,2200.00"/>
        <lane id="258_1" index="1" speed="13.89" length="389.60" shape="1801.60,1810.40 1801.60,2200.00"/>
    </edge>
    <edge id="515" from="10" to="514" priority="-1">
        <lane id="515_0" index="0" speed="13.89" length="189.60" shape="1795.20,1789.60 1795.20,1600.00"/>
        <lane id="515_1" index="1" speed="13.89" length="189.60" shape="1798.40,1789.60 1798.40,1600.00"/>
    </edge>

    <tlLogic id="10" type="static" programID="0" offset="0">
        <phase duration="42" state="GGggrrrrGGGg"/>
        <phase duration="3"  state="yyyyrrrrGyyy"/>
        <phase duration="42" state="rrrrGGGgGrrr"/>
        <phase duration="3"  state="rrrryyyyGrrr"/>
    </tlLogic>

    <junction id="1" type="dead_end" x="2000.00" y="1800.00" incLanes="-11_0 -11_1" intLanes="" shape="2000.00,1800.00 2000.00,1793.60 2000.00,1800.00"/>
    <junction id="10" type="traffic_light" x="1800.00" y="1800.00" incLanes="-258_0 -258_1 11_0 11_1 -515_0 -515_1" intLanes=":10_0_0 :10_0_1 :10_12_0 :10_13_0 :10_4_0 :10_4_1 :10_6_0 :10_14_0 :10_8_0 :10_9_0 :10_9_1 :10_15_0" shape="1793.60,1810.40 1806.40,1810.40 1806.84,1808.18 1807.40,1807.40 1808.18,1806.84 1809.18,1806.51 1810.40,1806.40 1810.40,1793.60 1808.18,1793.16 1807.40,1792.60 1806.84,1791.82 1806.51,1790.82 1806.40,1789.60 1793.60,1789.60">
        <request index="0"  response="000000000000" foes="100001000000" cont="0"/>
        <request index="1"  response="000000000000" foes="100001000000" cont="0"/>
        <request index="2"  response="011000000000" foes="011011000000" cont="1"/>
        <request index="3"  response="011000110000" foes="011000110000" cont="1"/>
        <request index="4"  response="011000000000" foes="011000001000" cont="0"/>
        <request index="5"  response="011000000000" foes="011000001000" cont="0"/>
        <request index="6"  response="011000000111" foes="111000000111" cont="0"/>
        <request index="7"  response="000000000100" foes="000000000100" cont="1"/>
        <request index="8"  response="000000000000" foes="000000000000" cont="0"/>
        <request index="9"  response="000000000000" foes="000001111100" cont="0"/>
        <request index="10" response="000000000000" foes="000001111100" cont="0"/>
        <request index="11" response="000001000011" foes="000001000011" cont="1"/>
    </junction>
    <junction id="257" type="dead_end" x="1800.00" y="2200.00" incLanes="258_0 258_1" intLanes="" shape="1800.00,2200.00 1806.40,2200.00 1800.00,2200.00"/>
    <junction id="514" type="dead_end" x="1800.00" y="1600.00" incLanes="515_0 515_1" intLanes="" shape="1800.00,1600.00 1793.60,1600.00 1800.00,1600.00"/>

    <junction id=":10_12_0" type="internal" x="1799.11" y="1805.44" incLanes=":10_2_0 -515_0 -515_1" intLanes=":10_6_0 :10_7_0 :10_8_0 :10_9_0 :10_9_1"/>
    <junction id=":10_13_0" type="internal" x="1799.20" y="1809.20" incLanes=":10_3_0 -515_0 -515_1 11_0 11_1" intLanes=":10_4_0 :10_4_1 :10_9_0 :10_9_1"/>
    <junction id=":10_14_0" type="internal" x="1808.80" y="1800.00" incLanes=":10_7_0 -258_1 -515_0" intLanes=":10_2_0 :10_8_0"/>
    <junction id=":10_15_0" type="internal" x="1800.80" y="1790.80" incLanes=":10_11_0 -258_0 -258_1 11_1" intLanes=":10_0_0 :10_0_1 :10_6_0"/>

    <connection from="-258" to="515" fromLane="0" toLane="0" via=":10_0_0" tl="10" linkIndex="0" dir="s" state="O"/>
    <connection from="-258" to="515" fromLane="1" toLane="1" via=":10_0_1" tl="10" linkIndex="1" dir="s" state="O"/>
    <connection from="-258" to="-11" fromLane="1" toLane="1" via=":10_2_0" tl="10" linkIndex="2" dir="l" state="o"/>
    <connection from="-258" to="258" fromLane="1" toLane="1" via=":10_3_0" tl="10" linkIndex="3" dir="t" state="o"/>
    <connection from="-515" to="-11" fromLane="0" toLane="0" via=":10_8_0" tl="10" linkIndex="8" dir="r" state="O"/>
    <connection from="-515" to="258" fromLane="0" toLane="0" via=":10_9_0" tl="10" linkIndex="9" dir="s" state="O"/>
    <connection from="-515" to="258" fromLane="1" toLane="1" via=":10_9_1" tl="10" linkIndex="10" dir="s" state="O"/>
    <connection from="-515" to="515" fromLane="1" toLane="1" via=":10_11_0" tl="10" linkIndex="11" dir="t" state="o"/>
    <connection from="11" to="258" fromLane="0" toLane="0" via=":10_4_0" tl="10" linkIndex="4" dir="r" state="o"/>
    <connection from="11" to="258" fromLane="1" toLane="1" via=":10_4_1" tl="10" linkIndex="5" dir="r" state="o"/>
    <connection from="11" to="515" fromLane="1" toLane="1" via=":10_6_0" tl="10" linkIndex="6" dir="l" state="o"/>
    <connection from="11" to="-11" fromLane="1" toLane="1" via=":10_7_0" tl="10" linkIndex="7" dir="t" state="o"/>

    <connection from=":10_0" to="515" fromLane="0" toLane="0" dir="s" state="M"/>
    <connection from=":10_0" to="515" fromLane="1" toLane="1" dir="s" state="M"/>
    <connection from=":10_2" to="-11" fromLane="0" toLane="1" via=":10_12_0" dir="l" state="m"/>
    <connection from=":10_12" to="-11" fromLane="0" toLane="1" dir="l" state="M"/>
    <connection from=":10_3" to="258" fromLane="0" toLane="1" via=":10_13_0" dir="t" state="m"/>
    <connection from=":10_13" to="258" fromLane="0" toLane="1" dir="t" state="M"/>
    <connection from=":10_4" to="258" fromLane="0" toLane="0" dir="r" state="M"/>
    <connection from=":10_4" to="258" fromLane="1" toLane="1" dir="r" state="M"/>
    <connection from=":10_6" to="515" fromLane="0" toLane="1" dir="l" state="M"/>
    <connection from=":10_7" to="-11" fromLane="0" toLane="1" via=":10_14_0" dir="t" state="m"/>
    <connection from=":10_14" to="-11" fromLane="0" toLane="1" dir="t" state="M"/>
    <connection from=":10_8" to="-11" fromLane="0" toLane="0" dir="r" state="M"/>
    <connection from=":10_9" to="258" fromLane="0" toLane="0" dir="s" state="M"/>
    <connection from=":10_9" to="258" fromLane="1" toLane="1" dir="s" state="M"/>
    <connection from=":10_11" to="515" fromLane="0" toLane="1" via=":10_15_0" dir="t" state="m"/>
    <connection from=":10_15" to="515" fromLane="0" toLane="1" dir="t" state="M"/>

</net>
