<?xml version="1.0" encoding="UTF-8"?>

<!-- generated on 2025-03-14 13:35:45.957681 by randomTrips.py v1_19_0+1770-8bb5c24c187
<configuration>
    <net-file value="random_grid_6.net.xml"/>
    <output-trip-file value="random_grid_6_heavy.trips.xml"/>
    <validate value="True"/>
    <period value="2.0"/>
</configuration>
-->

<!-- generated on 2025-03-14 13:35:45 by Eclipse SUMO duarouter Version v1_19_0+1770-8bb5c24c187
<configuration xmlns:xsi="http://www.w3.org/2001/XMLSchema-instance" xsi:noNamespaceSchemaLocation="http://sumo.dlr.de/xsd/duarouterConfiguration.xsd">

    <input>
        <net-file value="random_grid_6.net.xml"/>
        <route-files value="random_grid_6_heavy.trips.xml"/>
    </input>

    <output>
        <output-file value="random_grid_6_heavy.trips.xml.tmp"/>
        <alternatives-output value="NUL"/>
        <write-trips value="true"/>
    </output>

    <time>
        <begin value="0.0"/>
        <end value="3600.0"/>
    </time>

    <report>
        <no-warnings value="true"/>
        <ignore-errors value="true"/>
        <no-step-log value="true"/>
    </report>

</configuration>
-->

<routes xmlns:xsi="http://www.w3.org/2001/XMLSchema-instance" xsi:noNamespaceSchemaLocation="http://sumo.dlr.de/xsd/routes_file.xsd">
    <trip id="0" depart="0.00" from="-315" to="-270"/>
    <trip id="1" depart="2.00" from="-305" to="-305"/>
    <trip id="2" depart="4.00" from="270" to="307"/>
    <trip id="4" depart="8.00" from="-307" to="-270"/>
    <trip id="6" depart="12.00" from="-1907" to="-305"/>
    <trip id="7" depart="14.00" from="-315" to="305"/>
    <trip id="10" depart="20.00" from="270" to="307"/>
    <trip id="11" depart="22.00" from="-307" to="-270"/>
    <trip id="12" depart="24.00" from="305" to="1907"/>
    <trip id="13" depart="26.00" from="-1907" to="-270"/>
    <trip id="14" depart="28.00" from="305" to="305"/>
    <trip id="15" depart="30.00" from="270" to="307"/>
    <trip id="17" depart="34.00" from="-307" to="305"/>
    <trip id="18" depart="36.00" from="270" to="305"/>
    <trip id="19" depart="38.00" from="305" to="305"/>
    <trip id="21" depart="42.00" from="-305" to="-305"/>
    <trip id="22" depart="44.00" from="-1907" to="-305"/>
    <trip id="23" depart="46.00" from="-1907" to="-305"/>
    <trip id="24" depart="48.00" from="-315" to="1907"/>
    <trip id="26" depart="52.00" from="-305" to="315"/>
    <trip id="27" depart="54.00" from="-315" to="305"/>
    <trip id="28" depart="56.00" from="-305" to="307"/>
    <trip id="30" depart="60.00" from="305" to="305"/>
    <trip id="31" depart="62.00" from="-315" to="307"/>
    <trip id="33" depart="66.00" from="-305" to="-270"/>
    <trip id="34" depart="68.00" from="-305" to="-305"/>
    <trip id="35" depart="70.00" from="-305" to="315"/>
    <trip id="37" depart="74.00" from="-315" to="1907"/>
    <trip id="38" depart="76.00" from="305" to="1907"/>
    <trip id="39" depart="78.00" from="-305" to="-305"/>
    <trip id="43" depart="86.00" from="305" to="305"/>
    <trip id="44" depart="88.00" from="-1907" to="-270"/>
    <trip id="46" depart="92.00" from="270" to="1907"/>
    <trip id="48" depart="96.00" from="305" to="305"/>
    <trip id="50" depart="100.00" from="-1907" to="307"/>
    <trip id="51" depart="102.00" from="270" to="305"/>
    <trip id="54" depart="108.00" from="-307" to="315"/>
    <trip id="59" depart="118.00" from="-315" to="-270"/>
    <trip id="60" depart="120.00" from="270" to="305"/>
    <trip id="61" depart="122.00" from="270" to="305"/>
    <trip id="62" depart="124.00" from="-1907" to="-305"/>
    <trip id="63" depart="126.00" from="-1907" to="315"/>
    <trip id="65" depart="130.00" from="-305" to="-270"/>
    <trip id="68" depart="136.00" from="-1907" to="307"/>
    <trip id="70" depart="140.00" from="-307" to="305"/>
    <trip id="71" depart="142.00" from="-305" to="315"/>
    <trip id="73" depart="146.00" from="-315" to="307"/>
    <trip id="74" depart="148.00" from="-305" to="-305"/>
    <trip id="75" depart="150.00" from="305" to="305"/>
    <trip id="76" depart="152.00" from="-307" to="305"/>
    <trip id="77" depart="154.00" from="-1907" to="-305"/>
    <trip id="78" depart="156.00" from="-307" to="305"/>
    <trip id="79" depart="158.00" from="-305" to="-305"/>
    <trip id="81" depart="162.00" from="-305" to="315"/>
    <trip id="83" depart="166.00" from="-305" to="307"/>
    <trip id="84" depart="168.00" from="-305" to="-270"/>
    <trip id="85" depart="170.00" from="305" to="305"/>
    <trip id="89" depart="178.00" from="-307" to="1907"/>
    <trip id="90" depart="180.00" from="270" to="307"/>
    <trip id="92" depart="184.00" from="-307" to="1907"/>
    <trip id="96" depart="192.00" from="-305" to="315"/>
    <trip id="97" depart="194.00" from="-307" to="315"/>
    <trip id="98" depart="196.00" from="-315" to="-270"/>
    <trip id="103" depart="206.00" from="-307" to="-270"/>
    <trip id="104" depart="208.00" from="-307" to="315"/>
    <trip id="105" depart="210.00" from="-305" to="307"/>
    <trip id="106" depart="212.00" from="-307" to="1907"/>
    <trip id="108" depart="216.00" from="-315" to="307"/>
    <trip id="109" depart="218.00" from="-1907" to="-305"/>
    <trip id="110" depart="220.00" from="305" to="305"/>
    <trip id="111" depart="222.00" from="-315" to="307"/>
    <trip id="114" depart="228.00" from="-1907" to="315"/>
    <trip id="115" depart="230.00" from="-1907" to="-305"/>
    <trip id="116" depart="232.00" from="-315" to="307"/>
    <trip id="117" depart="234.00" from="-305" to="-270"/>
    <trip id="119" depart="238.00" from="-315" to="305"/>
    <trip id="120" depart="240.00" from="-307" to="305"/>
    <trip id="122" depart="244.00" from="-305" to="307"/>
    <trip id="125" depart="250.00" from="-305" to="307"/>
    <trip id="128" depart="256.00" from="-1907" to="-305"/>
    <trip id="129" depart="258.00" from="-305" to="315"/>
    <trip id="131" depart="262.00" from="-307" to="-270"/>
    <trip id="134" depart="268.00" from="-315" to="-270"/>
    <trip id="137" depart="274.00" from="-1907" to="-270"/>
    <trip id="142" depart="284.00" from="-307" to="315"/>
    <trip id="145" depart="290.00" from="-1907" to="307"/>
    <trip id="147" depart="294.00" from="270" to="305"/>
    <trip id="148" depart="296.00" from="-307" to="-270"/>
    <trip id="149" depart="298.00" from="-1907" to="315"/>
    <trip id="150" depart="300.00" from="305" to="305"/>
    <trip id="151" depart="302.00" from="305" to="305"/>
    <trip id="152" depart="304.00" from="-1907" to="-270"/>
    <trip id="153" depart="306.00" from="-305" to="315"/>
    <trip id="154" depart="308.00" from="270" to="315"/>
    <trip id="156" depart="312.00" from="-305" to="-270"/>
    <trip id="157" depart="314.00" from="270" to="315"/>
    <trip id="158" depart="316.00" from="-307" to="305"/>
    <trip id="159" depart="318.00" from="-1907" to="315"/>
    <trip id="161" depart="322.00" from="270" to="315"/>
    <trip id="162" depart="324.00" from="-1907" to="307"/>
    <trip id="163" depart="326.00" from="-305" to="315"/>
    <trip id="164" depart="328.00" from="270" to="315"/>
    <trip id="168" depart="336.00" from="-305" to="307"/>
    <trip id="171" depart="342.00" from="-1907" to="-305"/>
    <trip id="172" depart="344.00" from="-305" to="315"/>
    <trip id="174" depart="348.00" from="-315" to="1907"/>
    <trip id="175" depart="350.00" from="305" to="305"/>
    <trip id="181" depart="362.00" from="-315" to="305"/>
    <trip id="182" depart="364.00" from="-307" to="305"/>
    <trip id="183" depart="366.00" from="-305" to="307"/>
    <trip id="184" depart="368.00" from="-1907" to="315"/>
    <trip id="185" depart="370.00" from="-315" to="307"/>
    <trip id="186" depart="372.00" from="270" to="307"/>
    <trip id="187" depart="374.00" from="-307" to="-270"/>
    <trip id="189" depart="378.00" from="-305" to="315"/>
    <trip id="195" depart="390.00" from="305" to="305"/>
    <trip id="197" depart="394.00" from="-1907" to="-305"/>
    <trip id="198" depart="396.00" from="-307" to="305"/>
    <trip id="199" depart="398.00" from="-315" to="1907"/>
    <trip id="201" depart="402.00" from="-307" to="315"/>
    <trip id="204" depart="408.00" from="-315" to="1907"/>
    <trip id="205" depart="410.00" from="270" to="307"/>
    <trip id="207" depart="414.00" from="-305" to="-270"/>
    <trip id="210" depart="420.00" from="-307" to="305"/>
    <trip id="211" depart="422.00" from="-305" to="307"/>
    <trip id="213" depart="426.00" from="-315" to="-270"/>
    <trip id="214" depart="428.00" from="270" to="307"/>
    <trip id="216" depart="432.00" from="-305" to="315"/>
    <trip id="217" depart="434.00" from="-315" to="-270"/>
    <trip id="218" depart="436.00" from="-305" to="315"/>
    <trip id="220" depart="440.00" from="270" to="315"/>
    <trip id="222" depart="444.00" from="305" to="305"/>
    <trip id="223" depart="446.00" from="270" to="305"/>
    <trip id="224" depart="448.00" from="270" to="305"/>
    <trip id="228" depart="456.00" from="270" to="305"/>
    <trip id="230" depart="460.00" from="-1907" to="-305"/>
    <trip id="231" depart="462.00" from="-305" to="-305"/>
    <trip id="232" depart="464.00" from="-315" to="-270"/>
    <trip id="233" depart="466.00" from="-305" to="307"/>
    <trip id="235" depart="470.00" from="-307" to="305"/>
    <trip id="237" depart="474.00" from="-307" to="315"/>
    <trip id="238" depart="476.00" from="-315" to="307"/>
    <trip id="240" depart="480.00" from="-307" to="-270"/>
    <trip id="244" depart="488.00" from="-315" to="305"/>
    <trip id="245" depart="490.00" from="-305" to="-305"/>
    <trip id="246" depart="492.00" from="-307" to="-270"/>
    <trip id="248" depart="496.00" from="-307" to="-270"/>
    <trip id="249" depart="498.00" from="-307" to="-270"/>
    <trip id="250" depart="500.00" from="-315" to="-270"/>
    <trip id="251" depart="502.00" from="-307" to="305"/>
    <trip id="255" depart="510.00" from="-305" to="-305"/>
    <trip id="256" depart="512.00" from="270" to="1907"/>
    <trip id="257" depart="514.00" from="270" to="307"/>
    <trip id="258" depart="516.00" from="-305" to="-270"/>
    <trip id="260" depart="520.00" from="305" to="1907"/>
    <trip id="261" depart="522.00" from="-315" to="307"/>
    <trip id="262" depart="524.00" from="-315" to="307"/>
    <trip id="264" depart="528.00" from="-1907" to="-270"/>
    <trip id="265" depart="530.00" from="-1907" to="307"/>
    <trip id="267" depart="534.00" from="270" to="307"/>
    <trip id="270" depart="540.00" from="270" to="315"/>
    <trip id="271" depart="542.00" from="-1907" to="-270"/>
    <trip id="272" depart="544.00" from="-305" to="307"/>
    <trip id="273" depart="546.00" from="305" to="1907"/>
    <trip id="275" depart="550.00" from="270" to="305"/>
    <trip id="276" depart="552.00" from="-1907" to="307"/>
    <trip id="277" depart="554.00" from="305" to="305"/>
    <trip id="278" depart="556.00" from="-1907" to="315"/>
    <trip id="279" depart="558.00" from="270" to="1907"/>
    <trip id="280" depart="560.00" from="-307" to="1907"/>
    <trip id="281" depart="562.00" from="-315" to="1907"/>
    <trip id="283" depart="566.00" from="-1907" to="315"/>
    <trip id="284" depart="568.00" from="-315" to="307"/>
    <trip id="285" depart="570.00" from="270" to="1907"/>
    <trip id="286" depart="572.00" from="270" to="315"/>
    <trip id="287" depart="574.00" from="-305" to="307"/>
    <trip id="288" depart="576.00" from="-315" to="1907"/>
    <trip id="290" depart="580.00" from="-305" to="315"/>
    <trip id="293" depart="586.00" from="-307" to="305"/>
    <trip id="294" depart="588.00" from="-307" to="-270"/>
    <trip id="296" depart="592.00" from="-305" to="307"/>
    <trip id="297" depart="594.00" from="-307" to="315"/>
    <trip id="299" depart="598.00" from="-1907" to="315"/>
    <trip id="300" depart="600.00" from="-1907" to="307"/>
    <trip id="302" depart="604.00" from="270" to="305"/>
    <trip id="304" depart="608.00" from="-1907" to="-305"/>
    <trip id="306" depart="612.00" from="-315" to="1907"/>
    <trip id="307" depart="614.00" from="-315" to="1907"/>
    <trip id="310" depart="620.00" from="-305" to="-270"/>
    <trip id="311" depart="622.00" from="-305" to="-270"/>
    <trip id="312" depart="624.00" from="-315" to="307"/>
    <trip id="313" depart="626.00" from="-305" to="-305"/>
    <trip id="315" depart="630.00" from="305" to="305"/>
    <trip id="316" depart="632.00" from="-305" to="-270"/>
    <trip id="317" depart="634.00" from="-305" to="-305"/>
    <trip id="318" depart="636.00" from="-305" to="-270"/>
    <trip id="320" depart="640.00" from="305" to="305"/>
    <trip id="322" depart="644.00" from="305" to="1907"/>
    <trip id="323" depart="646.00" from="305" to="305"/>
    <trip id="324" depart="648.00" from="-307" to="1907"/>
    <trip id="325" depart="650.00" from="-305" to="-270"/>
    <trip id="326" depart="652.00" from="305" to="1907"/>
    <trip id="327" depart="654.00" from="270" to="1907"/>
    <trip id="329" depart="658.00" from="-1907" to="-270"/>
    <trip id="332" depart="664.00" from="270" to="305"/>
    <trip id="334" depart="668.00" from="-315" to="1907"/>
    <trip id="335" depart="670.00" from="-307" to="315"/>
    <trip id="337" depart="674.00" from="-315" to="305"/>
    <trip id="338" depart="676.00" from="270" to="315"/>
    <trip id="339" depart="678.00" from="-305" to="-305"/>
    <trip id="340" depart="680.00" from="-315" to="-270"/>
    <trip id="341" depart="682.00" from="-305" to="-270"/>
    <trip id="344" depart="688.00" from="-305" to="307"/>
    <trip id="345" depart="690.00" from="270" to="1907"/>
    <trip id="346" depart="692.00" from="270" to="315"/>
    <trip id="347" depart="694.00" from="270" to="305"/>
    <trip id="349" depart="698.00" from="-307" to="305"/>
    <trip id="352" depart="704.00" from="-1907" to="-305"/>
    <trip id="353" depart="706.00" from="270" to="305"/>
    <trip id="354" depart="708.00" from="-305" to="-270"/>
    <trip id="355" depart="710.00" from="270" to="307"/>
    <trip id="356" depart="712.00" from="305" to="305"/>
    <trip id="357" depart="714.00" from="-307" to="-270"/>
    <trip id="359" depart="718.00" from="-305" to="-305"/>
    <trip id="360" depart="720.00" from="-1907" to="315"/>
    <trip id="361" depart="722.00" from="305" to="305"/>
    <trip id="364" depart="728.00" from="-1907" to="307"/>
    <trip id="365" depart="730.00" from="-307" to="305"/>
    <trip id="367" depart="734.00" from="-315" to="305"/>
    <trip id="368" depart="736.00" from="-307" to="-270"/>
    <trip id="370" depart="740.00" from="270" to="315"/>
    <trip id="371" depart="742.00" from="-305" to="307"/>
    <trip id="372" depart="744.00" from="-305" to="315"/>
    <trip id="373" depart="746.00" from="270" to="305"/>
    <trip id="375" depart="750.00" from="-305" to="315"/>
    <trip id="376" depart="752.00" from="-307" to="305"/>
    <trip id="377" depart="754.00" from="305" to="305"/>
    <trip id="378" depart="756.00" from="-315" to="1907"/>
    <trip id="380" depart="760.00" from="270" to="305"/>
    <trip id="384" depart="768.00" from="-1907" to="315"/>
    <trip id="387" depart="774.00" from="-315" to="-270"/>
    <trip id="389" depart="778.00" from="-307" to="-270"/>
    <trip id="390" depart="780.00" from="270" to="1907"/>
    <trip id="391" depart="782.00" from="270" to="305"/>
    <trip id="392" depart="784.00" from="-305" to="315"/>
    <trip id="394" depart="788.00" from="-315" to="1907"/>
    <trip id="395" depart="790.00" from="305" to="305"/>
    <trip id="397" depart="794.00" from="-305" to="307"/>
    <trip id="398" depart="796.00" from="-307" to="315"/>
    <trip id="399" depart="798.00" from="-315" to="307"/>
    <trip id="400" depart="800.00" from="-305" to="-305"/>
    <trip id="402" depart="804.00" from="-307" to="-270"/>
    <trip id="403" depart="806.00" from="-315" to="1907"/>
    <trip id="404" depart="808.00" from="-315" to="305"/>
    <trip id="406" depart="812.00" from="-305" to="307"/>
    <trip id="409" depart="818.00" from="270" to="307"/>
    <trip id="410" depart="820.00" from="270" to="1907"/>
    <trip id="411" depart="822.00" from="-315" to="307"/>
    <trip id="412" depart="824.00" from="305" to="1907"/>
    <trip id="415" depart="830.00" from="305" to="1907"/>
    <trip id="416" depart="832.00" from="-315" to="1907"/>
    <trip id="417" depart="834.00" from="270" to="1907"/>
    <trip id="418" depart="836.00" from="-315" to="-270"/>
    <trip id="419" depart="838.00" from="-307" to="315"/>
    <trip id="424" depart="848.00" from="270" to="307"/>
    <trip id="428" depart="856.00" from="270" to="1907"/>
    <trip id="430" depart="860.00" from="305" to="1907"/>
    <trip id="431" depart="862.00" from="270" to="315"/>
    <trip id="432" depart="864.00" from="-1907" to="307"/>
    <trip id="435" depart="870.00" from="-315" to="307"/>
    <trip id="436" depart="872.00" from="-305" to="-270"/>
    <trip id="437" depart="874.00" from="305" to="305"/>
    <trip id="438" depart="876.00" from="-305" to="315"/>
    <trip id="440" depart="880.00" from="-305" to="-305"/>
    <trip id="441" depart="882.00" from="-1907" to="307"/>
    <trip id="444" depart="888.00" from="-307" to="305"/>
    <trip id="445" depart="890.00" from="-315" to="1907"/>
    <trip id="446" depart="892.00" from="-305" to="315"/>
    <trip id="449" depart="898.00" from="-315" to="305"/>
    <trip id="451" depart="902.00" from="305" to="305"/>
    <trip id="453" depart="906.00" from="270" to="307"/>
    <trip id="455" depart="910.00" from="-307" to="315"/>
    <trip id="456" depart="912.00" from="-305" to="307"/>
    <trip id="457" depart="914.00" from="-315" to="1907"/>
    <trip id="458" depart="916.00" from="-315" to="305"/>
    <trip id="459" depart="918.00" from="270" to="307"/>
    <trip id="463" depart="926.00" from="-307" to="305"/>
    <trip id="465" depart="930.00" from="-305" to="307"/>
    <trip id="466" depart="932.00" from="-305" to="-270"/>
    <trip id="470" depart="940.00" from="270" to="1907"/>
    <trip id="471" depart="942.00" from="270" to="307"/>
    <trip id="472" depart="944.00" from="-307" to="-270"/>
    <trip id="475" depart="950.00" from="270" to="315"/>
    <trip id="480" depart="960.00" from="270" to="305"/>
    <trip id="481" depart="962.00" from="270" to="315"/>
    <trip id="482" depart="964.00" from="-1907" to="-305"/>
    <trip id="483" depart="966.00" from="-1907" to="315"/>
    <trip id="485" depart="970.00" from="-305" to="-270"/>
    <trip id="486" depart="972.00" from="270" to="315"/>
    <trip id="488" depart="976.00" from="-1907" to="315"/>
    <trip id="490" depart="980.00" from="-1907" to="315"/>
    <trip id="492" depart="984.00" from="270" to="307"/>
    <trip id="493" depart="986.00" from="305" to="1907"/>
    <trip id="495" depart="990.00" from="-307" to="-270"/>
    <trip id="496" depart="992.00" from="-307" to="1907"/>
    <trip id="498" depart="996.00" from="-307" to="1907"/>
    <trip id="500" depart="1000.00" from="-1907" to="307"/>
    <trip id="502" depart="1004.00" from="-307" to="1907"/>
    <trip id="503" depart="1006.00" from="-305" to="-270"/>
    <trip id="504" depart="1008.00" from="305" to="1907"/>
    <trip id="505" depart="1010.00" from="-315" to="305"/>
    <trip id="506" depart="1012.00" from="-315" to="-270"/>
    <trip id="509" depart="1018.00" from="-1907" to="307"/>
    <trip id="510" depart="1020.00" from="-305" to="-305"/>
    <trip id="512" depart="1024.00" from="-1907" to="315"/>
    <trip id="513" depart="1026.00" from="-1907" to="315"/>
    <trip id="514" depart="1028.00" from="-1907" to="-270"/>
    <trip id="515" depart="1030.00" from="-305" to="-305"/>
    <trip id="516" depart="1032.00" from="-315" to="-270"/>
    <trip id="517" depart="1034.00" from="-1907" to="307"/>
    <trip id="518" depart="1036.00" from="-305" to="-305"/>
    <trip id="519" depart="1038.00" from="-305" to="-270"/>
    <trip id="520" depart="1040.00" from="270" to="305"/>
    <trip id="521" depart="1042.00" from="270" to="1907"/>
    <trip id="522" depart="1044.00" from="270" to="305"/>
    <trip id="525" depart="1050.00" from="270" to="315"/>
    <trip id="526" depart="1052.00" from="-315" to="1907"/>
    <trip id="528" depart="1056.00" from="-307" to="1907"/>
    <trip id="529" depart="1058.00" from="270" to="1907"/>
    <trip id="532" depart="1064.00" from="-1907" to="-305"/>
    <trip id="533" depart="1066.00" from="-315" to="305"/>
    <trip id="534" depart="1068.00" from="-305" to="315"/>
    <trip id="535" depart="1070.00" from="-315" to="1907"/>
    <trip id="536" depart="1072.00" from="-315" to="-270"/>
    <trip id="537" depart="1074.00" from="270" to="315"/>
    <trip id="538" depart="1076.00" from="-315" to="307"/>
    <trip id="541" depart="1082.00" from="-307" to="1907"/>
    <trip id="542" depart="1084.00" from="-307" to="-270"/>
    <trip id="543" depart="1086.00" from="-307" to="305"/>
    <trip id="544" depart="1088.00" from="-307" to="-270"/>
    <trip id="547" depart="1094.00" from="-1907" to="307"/>
    <trip id="548" depart="1096.00" from="270" to="305"/>
    <trip id="549" depart="1098.00" from="-315" to="305"/>
    <trip id="550" depart="1100.00" from="-305" to="-270"/>
    <trip id="551" depart="1102.00" from="-307" to="305"/>
    <trip id="552" depart="1104.00" from="270" to="315"/>
    <trip id="553" depart="1106.00" from="270" to="315"/>
    <trip id="554" depart="1108.00" from="-315" to="1907"/>
    <trip id="557" depart="1114.00" from="-1907" to="315"/>
    <trip id="559" depart="1118.00" from="-315" to="307"/>
    <trip id="561" depart="1122.00" from="270" to="305"/>
    <trip id="562" depart="1124.00" from="-315" to="-270"/>
    <trip id="564" depart="1128.00" from="-305" to="-305"/>
    <trip id="566" depart="1132.00" from="-307" to="-270"/>
    <trip id="567" depart="1134.00" from="305" to="305"/>
    <trip id="568" depart="1136.00" from="-307" to="-270"/>
    <trip id="569" depart="1138.00" from="-315" to="-270"/>
    <trip id="571" depart="1142.00" from="-307" to="1907"/>
    <trip id="573" depart="1146.00" from="270" to="305"/>
    <trip id="574" depart="1148.00" from="-1907" to="-270"/>
    <trip id="577" depart="1154.00" from="-315" to="1907"/>
    <trip id="581" depart="1162.00" from="270" to="1907"/>
    <trip id="583" depart="1166.00" from="-307" to="305"/>
    <trip id="584" depart="1168.00" from="-1907" to="-305"/>
    <trip id="585" depart="1170.00" from="-305" to="-270"/>
    <trip id="586" depart="1172.00" from="-305" to="-305"/>
    <trip id="587" depart="1174.00" from="-1907" to="307"/>
    <trip id="589" depart="1178.00" from="270" to="305"/>
    <trip id="591" depart="1182.00" from="-1907" to="315"/>
    <trip id="592" depart="1184.00" from="-1907" to="-270"/>
    <trip id="594" depart="1188.00" from="-315" to="305"/>
    <trip id="595" depart="1190.00" from="270" to="1907"/>
    <trip id="596" depart="1192.00" from="-1907" to="-270"/>
    <trip id="597" depart="1194.00" from="-305" to="307"/>
    <trip id="598" depart="1196.00" from="-315" to="307"/>
    <trip id="601" depart="1202.00" from="-315" to="305"/>
    <trip id="606" depart="1212.00" from="305" to="1907"/>
    <trip id="607" depart="1214.00" from="270" to="307"/>
    <trip id="609" depart="1218.00" from="-1907" to="-305"/>
    <trip id="610" depart="1220.00" from="-315" to="307"/>
    <trip id="612" depart="1224.00" from="270" to="1907"/>
    <trip id="613" depart="1226.00" from="270" to="307"/>
    <trip id="614" depart="1228.00" from="-307" to="315"/>
    <trip id="615" depart="1230.00" from="-315" to="305"/>
    <trip id="617" depart="1234.00" from="-315" to="-270"/>
    <trip id="619" depart="1238.00" from="-305" to="-305"/>
    <trip id="622" depart="1244.00" from="-1907" to="307"/>
    <trip id="623" depart="1246.00" from="-1907" to="315"/>
    <trip id="624" depart="1248.00" from="305" to="305"/>
    <trip id="625" depart="1250.00" from="-315" to="1907"/>
    <trip id="626" depart="1252.00" from="-315" to="307"/>
    <trip id="627" depart="1254.00" from="305" to="1907"/>
    <trip id="628" depart="1256.00" from="270" to="305"/>
    <trip id="630" depart="1260.00" from="-1907" to="-270"/>
    <trip id="631" depart="1262.00" from="-1907" to="315"/>
    <trip id="635" depart="1270.00" from="-307" to="305"/>
    <trip id="638" depart="1276.00" from="-307" to="305"/>
    <trip id="639" depart="1278.00" from="270" to="305"/>
    <trip id="640" depart="1280.00" from="-1907" to="-270"/>
    <trip id="642" depart="1284.00" from="270" to="305"/>
    <trip id="644" depart="1288.00" from="-307" to="305"/>
    <trip id="647" depart="1294.00" from="-307" to="305"/>
    <trip id="650" depart="1300.00" from="270" to="307"/>
    <trip id="651" depart="1302.00" from="270" to="307"/>
    <trip id="652" depart="1304.00" from="270" to="305"/>
    <trip id="653" depart="1306.00" from="-315" to="1907"/>
    <trip id="654" depart="1308.00" from="-307" to="1907"/>
    <trip id="655" depart="1310.00" from="-305" to="-305"/>
    <trip id="656" depart="1312.00" from="305" to="1907"/>
    <trip id="657" depart="1314.00" from="-305" to="-270"/>
    <trip id="658" depart="1316.00" from="-1907" to="315"/>
    <trip id="659" depart="1318.00" from="-1907" to="307"/>
    <trip id="663" depart="1326.00" from="-307" to="-270"/>
    <trip id="664" depart="1328.00" from="270" to="307"/>
    <trip id="666" depart="1332.00" from="-307" to="1907"/>
    <trip id="669" depart="1338.00" from="270" to="1907"/>
    <trip id="671" depart="1342.00" from="270" to="1907"/>
    <trip id="672" depart="1344.00" from="305" to="1907"/>
    <trip id="675" depart="1350.00" from="-307" to="305"/>
    <trip id="679" depart="1358.00" from="305" to="305"/>
    <trip id="680" depart="1360.00" from="-1907" to="315"/>
    <trip id="684" depart="1368.00" from="-307" to="315"/>
    <trip id="686" depart="1372.00" from="-307" to="-270"/>
    <trip id="688" depart="1376.00" from="-305" to="315"/>
    <trip id="689" depart="1378.00" from="-307" to="-270"/>
    <trip id="691" depart="1382.00" from="-315" to="307"/>
    <trip id="692" depart="1384.00" from="-1907" to="-305"/>
    <trip id="693" depart="1386.00" from="270" to="307"/>
    <trip id="694" depart="1388.00" from="-1907" to="307"/>
    <trip id="695" depart="1390.00" from="-307" to="-270"/>
    <trip id="696" depart="1392.00" from="-1907" to="-305"/>
    <trip id="697" depart="1394.00" from="305" to="305"/>
    <trip id="698" depart="1396.00" from="270" to="305"/>
    <trip id="699" depart="1398.00" from="-1907" to="-305"/>
    <trip id="700" depart="1400.00" from="-305" to="-270"/>
    <trip id="702" depart="1404.00" from="-307" to="-270"/>
    <trip id="703" depart="1406.00" from="305" to="305"/>
    <trip id="705" depart="1410.00" from="-305" to="-270"/>
    <trip id="706" depart="1412.00" from="-307" to="305"/>
    <trip id="708" depart="1416.00" from="-315" to="-270"/>
    <trip id="710" depart="1420.00" from="-315" to="305"/>
    <trip id="711" depart="1422.00" from="305" to="305"/>
    <trip id="712" depart="1424.00" from="-307" to="1907"/>
    <trip id="714" depart="1428.00" from="-305" to="-270"/>
    <trip id="715" depart="1430.00" from="270" to="1907"/>
    <trip id="716" depart="1432.00" from="270" to="305"/>
    <trip id="717" depart="1434.00" from="270" to="307"/>
    <trip id="718" depart="1436.00" from="-305" to="-270"/>
    <trip id="719" depart="1438.00" from="-315" to="307"/>
    <trip id="720" depart="1440.00" from="-305" to="307"/>
    <trip id="722" depart="1444.00" from="-315" to="307"/>
    <trip id="723" depart="1446.00" from="-1907" to="307"/>
    <trip id="725" depart="1450.00" from="-1907" to="-305"/>
    <trip id="726" depart="1452.00" from="-1907" to="315"/>
    <trip id="734" depart="1468.00" from="305" to="1907"/>
    <trip id="735" depart="1470.00" from="305" to="1907"/>
    <trip id="736" depart="1472.00" from="-307" to="315"/>
    <trip id="737" depart="1474.00" from="-315" to="307"/>
    <trip id="739" depart="1478.00" from="-315" to="307"/>
    <trip id="744" depart="1488.00" from="-307" to="-270"/>
    <trip id="745" depart="1490.00" from="305" to="1907"/>
    <trip id="750" depart="1500.00" from="270" to="315"/>
    <trip id="753" depart="1506.00" from="-1907" to="307"/>
    <trip id="754" depart="1508.00" from="-307" to="1907"/>
    <trip id="755" depart="1510.00" from="-315" to="305"/>
    <trip id="756" depart="1512.00" from="270" to="315"/>
    <trip id="758" depart="1516.00" from="-315" to="305"/>
    <trip id="759" depart="1518.00" from="-307" to="305"/>
    <trip id="760" depart="1520.00" from="-305" to="-270"/>
    <trip id="761" depart="1522.00" from="270" to="1907"/>
    <trip id="762" depart="1524.00" from="-307" to="305"/>
    <trip id="763" depart="1526.00" from="-305" to="-305"/>
    <trip id="764" depart="1528.00" from="-307" to="315"/>
    <trip id="765" depart="1530.00" from="-305" to="315"/>
    <trip id="766" depart="1532.00" from="-307" to="-270"/>
    <trip id="767" depart="1534.00" from="305" to="1907"/>
    <trip id="768" depart="1536.00" from="305" to="1907"/>
    <trip id="769" depart="1538.00" from="-1907" to="307"/>
    <trip id="771" depart="1542.00" from="-307" to="-270"/>
    <trip id="774" depart="1548.00" from="305" to="305"/>
    <trip id="775" depart="1550.00" from="270" to="305"/>
    <trip id="776" depart="1552.00" from="-1907" to="-305"/>
    <trip id="777" depart="1554.00" from="-1907" to="307"/>
    <trip id="780" depart="1560.00" from="-315" to="305"/>
    <trip id="781" depart="1562.00" from="-1907" to="-305"/>
    <trip id="783" depart="1566.00" from="-315" to="307"/>
    <trip id="785" depart="1570.00" from="305" to="305"/>
    <trip id="787" depart="1574.00" from="-307" to="315"/>
    <trip id="788" depart="1576.00" from="270" to="305"/>
    <trip id="789" depart="1578.00" from="-305" to="315"/>
    <trip id="790" depart="1580.00" from="-307" to="315"/>