<?xml version="1.0" encoding="UTF-8"?>

<!-- generated on 2025-03-14 13:28:40.919307 by randomTrips.py v1_22_0+0449-9311ec3459f
<configuration>
    <net-file value="random_grid_10.net.xml"/>
    <output-trip-file value="random_grid_10_light.trips.xml"/>
    <validate value="True"/>
    <period value="4.0"/>
</configuration>
-->

<!-- generated on 2025-03-14 13:28:40 by Eclipse SUMO duarouter Version v1_22_0+0449-9311ec3459f
<duarouterConfiguration xmlns:xsi="http://www.w3.org/2001/XMLSchema-instance" xsi:noNamespaceSchemaLocation="http://sumo.dlr.de/xsd/duarouterConfiguration.xsd">

    <input>
        <net-file value="random_grid_10.net.xml"/>
        <route-files value="random_grid_10_light.trips.xml"/>
    </input>

    <output>
        <output-file value="random_grid_10_light.trips.xml.tmp"/>
        <alternatives-output value="NUL"/>
        <write-trips value="true"/>
    </output>

    <time>
        <begin value="0.0"/>
        <end value="3600.0"/>
    </time>

    <report>
        <no-warnings value="true"/>
        <ignore-errors value="true"/>
        <no-step-log value="true"/>
    </report>

</duarouterConfiguration>
-->

<routes xmlns:xsi="http://www.w3.org/2001/XMLSchema-instance" xsi:noNamespaceSchemaLocation="http://sumo.dlr.de/xsd/routes_file.xsd">
    <trip id="1" depart="4.00" from="-1568" to="-533"/>
    <trip id="2" depart="8.00" from="533" to="1568"/>
    <trip id="6" depart="24.00" from="-1089" to="-533"/>
    <trip id="7" depart="28.00" from="1089" to="1089"/>
    <trip id="10" depart="40.00" from="533" to="1568"/>
    <trip id="11" depart="44.00" from="-937" to="-533"/>
    <trip id="13" depart="52.00" from="-1089" to="-1089"/>
    <trip id="14" depart="56.00" from="533" to="1568"/>
    <trip id="15" depart="60.00" from="533" to="937"/>
    <trip id="18" depart="72.00" from="533" to="1568"/>
    <trip id="19" depart="76.00" from="937" to="1568"/>
    <trip id="21" depart="84.00" from="-1568" to="-937"/>
    <trip id="22" depart="88.00" from="-1089" to="-533"/>
    <trip id="23" depart="92.00" from="-1089" to="-533"/>
    <trip id="25" depart="100.00" from="-937" to="-533"/>
    <trip id="26" depart="104.00" from="-1568" to="939"/>
    <trip id="27" depart="108.00" from="1089" to="1568"/>
    <trip id="29" depart="116.00" from="-1568" to="-937"/>
    <trip id="30" depart="120.00" from="937" to="1568"/>
    <trip id="31" depart="124.00" from="-939" to="1568"/>
    <trip id="32" depart="128.00" from="533" to="937"/>
    <trip id="33" depart="132.00" from="-1568" to="-1089"/>
    <trip id="34" depart="136.00" from="-937" to="-533"/>
    <trip id="35" depart="140.00" from="-1568" to="939"/>
    <trip id="38" depart="152.00" from="937" to="1089"/>
    <trip id="39" depart="156.00" from="-1568" to="-533"/>
    <trip id="40" depart="160.00" from="-939" to="-533"/>
    <trip id="42" depart="168.00" from="-937" to="-533"/>
    <trip id="43" depart="172.00" from="937" to="1089"/>
    <trip id="44" depart="176.00" from="-1089" to="-1089"/>
    <trip id="47" depart="188.00" from="-1089" to="-937"/>
    <trip id="48" depart="192.00" from="937" to="1089"/>
    <trip id="51" depart="204.00" from="1089" to="1089"/>
    <trip id="56" depart="224.00" from="-939" to="-533"/>
    <trip id="60" depart="240.00" from="533" to="1089"/>
    <trip id="61" depart="244.00" from="533" to="1089"/>
    <trip id="62" depart="248.00" from="-1089" to="-937"/>
    <trip id="63" depart="252.00" from="-1089" to="939"/>
    <trip id="64" depart="256.00" from="937" to="937"/>
    <trip id="70" depart="280.00" from="-939" to="1089"/>
    <trip id="71" depart="284.00" from="-1568" to="939"/>
    <trip id="72" depart="288.00" from="-937" to="-533"/>
    <trip id="73" depart="292.00" from="-939" to="937"/>
    <trip id="74" depart="296.00" from="-1568" to="-937"/>
    <trip id="75" depart="300.00" from="937" to="1568"/>
    <trip id="76" depart="304.00" from="-939" to="1089"/>
    <trip id="77" depart="308.00" from="-1089" to="-533"/>
    <trip id="79" depart="316.00" from="-1568" to="-533"/>
    <trip id="81" depart="324.00" from="-1568" to="939"/>
    <trip id="84" depart="336.00" from="-1568" to="-1089"/>
    <trip id="85" depart="340.00" from="937" to="1089"/>
    <trip id="86" depart="344.00" from="-939" to="937"/>
    <trip id="90" depart="360.00" from="533" to="1568"/>
    <trip id="92" depart="368.00" from="-937" to="-937"/>
    <trip id="95" depart="380.00" from="-937" to="-533"/>
    <trip id="96" depart="384.00" from="-1568" to="939"/>
    <trip id="99" depart="396.00" from="937" to="937"/>
    <trip id="102" depart="408.00" from="-939" to="-533"/>
    <trip id="104" depart="416.00" from="-937" to="939"/>
    <trip id="108" depart="432.00" from="-939" to="937"/>
    <trip id="109" depart="436.00" from="-1568" to="-937"/>
    <trip id="110" depart="440.00" from="937" to="1568"/>
    <trip id="111" depart="444.00" from="-939" to="937"/>
    <trip id="113" depart="452.00" from="-939" to="937"/>
    <trip id="114" depart="456.00" from="-1568" to="939"/>
    <trip id="115" depart="460.00" from="-1089" to="-533"/>
    <trip id="116" depart="464.00" from="1089" to="1568"/>
    <trip id="117" depart="468.00" from="-1568" to="-1089"/>
    <trip id="119" depart="476.00" from="1089" to="1568"/>
    <trip id="123" depart="492.00" from="-1568" to="-937"/>
    <trip id="128" depart="512.00" from="-1089" to="-533"/>
    <trip id="129" depart="516.00" from="-1568" to="939"/>
    <trip id="131" depart="524.00" from="-937" to="-533"/>
    <trip id="132" depart="528.00" from="533" to="1568"/>
    <trip id="137" depart="548.00" from="-1089" to="-1089"/>
    <trip id="144" depart="576.00" from="-937" to="-533"/>
    <trip id="147" depart="588.00" from="533" to="1089"/>
    <trip id="149" depart="596.00" from="-1089" to="939"/>
    <trip id="150" depart="600.00" from="937" to="1089"/>
    <trip id="151" depart="604.00" from="533" to="1568"/>
    <trip id="152" depart="608.00" from="-1568" to="-1089"/>
    <trip id="153" depart="612.00" from="-937" to="939"/>
    <trip id="154" depart="616.00" from="533" to="939"/>
    <trip id="156" depart="624.00" from="-1568" to="-1089"/>
    <trip id="157" depart="628.00" from="533" to="939"/>
    <trip id="159" depart="636.00" from="-1568" to="939"/>
    <trip id="161" depart="644.00" from="533" to="939"/>
    <trip id="163" depart="652.00" from="-937" to="939"/>
    <trip id="164" depart="656.00" from="533" to="939"/>
    <trip id="171" depart="684.00" from="-1089" to="-533"/>
    <trip id="172" depart="688.00" from="-937" to="939"/>
    <trip id="175" depart="700.00" from="937" to="1089"/>
    <trip id="181" depart="724.00" from="1089" to="1089"/>
    <trip id="184" depart="736.00" from="-1089" to="939"/>
    <trip id="185" depart="740.00" from="-939" to="937"/>
    <trip id="186" depart="744.00" from="533" to="1568"/>
    <trip id="191" depart="764.00" from="-937" to="-937"/>
    <trip id="192" depart="768.00" from="-937" to="-937"/>
    <trip id="193" depart="772.00" from="-1089" to="-937"/>
    <trip id="194" depart="776.00" from="937" to="1568"/>
    <trip id="195" depart="780.00" from="937" to="1568"/>
    <trip id="197" depart="788.00" from="-1089" to="-937"/>
    <trip id="198" depart="792.00" from="-939" to="1568"/>
    <trip id="199" depart="796.00" from="1089" to="1089"/>
    <trip id="200" depart="800.00" from="-939" to="-533"/>
    <trip id="205" depart="820.00" from="533" to="937"/>
    <trip id="207" depart="828.00" from="-1568" to="-1089"/>
    <trip id="212" depart="848.00" from="-939" to="-533"/>
    <trip id="214" depart="856.00" from="533" to="937"/>
    <trip id="215" depart="860.00" from="-1089" to="-937"/>
    <trip id="216" depart="864.00" from="-1568" to="939"/>
    <trip id="219" depart="876.00" from="-939" to="937"/>
    <trip id="222" depart="888.00" from="937" to="1568"/>
    <trip id="223" depart="892.00" from="533" to="1089"/>
    <trip id="224" depart="896.00" from="533" to="1089"/>
    <trip id="225" depart="900.00" from="937" to="937"/>
    <trip id="226" depart="904.00" from="-939" to="-533"/>
    <trip id="228" depart="912.00" from="533" to="1089"/>
    <trip id="230" depart="920.00" from="-1089" to="-937"/>
    <trip id="231" depart="924.00" from="-1568" to="-937"/>
    <trip id="236" depart="944.00" from="-937" to="-533"/>
    <trip id="237" depart="948.00" from="-937" to="939"/>
    <trip id="238" depart="952.00" from="1089" to="1568"/>
    <trip id="239" depart="956.00" from="533" to="937"/>
    <trip id="242" depart="968.00" from="533" to="939"/>
    <trip id="244" depart="976.00" from="-939" to="1568"/>
    <trip id="245" depart="980.00" from="-1568" to="-533"/>
    <trip id="248" depart="992.00" from="-937" to="-533"/>
    <trip id="254" depart="1016.00" from="-1089" to="-937"/>
    <trip id="255" depart="1020.00" from="-1568" to="-937"/>
    <trip id="257" depart="1028.00" from="533" to="937"/>
    <trip id="258" depart="1032.00" from="-1568" to="-1089"/>
    <trip id="264" depart="1056.00" from="-1089" to="-533"/>
    <trip id="266" depart="1064.00" from="-939" to="-533"/>
    <trip id="270" depart="1080.00" from="533" to="939"/>
    <trip id="271" depart="1084.00" from="-1089" to="-1089"/>
    <trip id="275" depart="1100.00" from="1089" to="1568"/>
    <trip id="277" depart="1108.00" from="533" to="1568"/>
    <trip id="278" depart="1112.00" from="-1089" to="939"/>
    <trip id="280" depart="1120.00" from="-937" to="-937"/>
    <trip id="282" depart="1128.00" from="533" to="937"/>
    <trip id="283" depart="1132.00" from="-1089" to="939"/>
    <trip id="285" depart="1140.00" from="1089" to="1089"/>
    <trip id="286" depart="1144.00" from="533" to="939"/>
    <trip id="288" depart="1152.00" from="-939" to="1089"/>
    <trip id="289" depart="1156.00" from="-939" to="937"/>
    <trip id="293" depart="1172.00" from="-939" to="1568"/>
    <trip id="297" depart="1188.00" from="-937" to="939"/>
    <trip id="299" depart="1196.00" from="-1089" to="939"/>
    <trip id="301" depart="1204.00" from="-939" to="937"/>
    <trip id="302" depart="1208.00" from="1089" to="1568"/>
    <trip id="303" depart="1212.00" from="-939" to="937"/>
    <trip id="304" depart="1216.00" from="-1089" to="-533"/>
    <trip id="306" depart="1224.00" from="1089" to="1089"/>
    <trip id="310" depart="1240.00" from="-1568" to="-1089"/>
    <trip id="311" depart="1244.00" from="-1568" to="-1089"/>
    <trip id="312" depart="1248.00" from="-939" to="937"/>
    <trip id="313" depart="1252.00" from="-1568" to="-533"/>
    <trip id="314" depart="1256.00" from="-939" to="937"/>
    <trip id="315" depart="1260.00" from="937" to="1089"/>
    <trip id="316" depart="1264.00" from="-1568" to="-1089"/>
    <trip id="317" depart="1268.00" from="-1568" to="-533"/>
    <trip id="318" depart="1272.00" from="-1568" to="-1089"/>
    <trip id="319" depart="1276.00" from="-939" to="-533"/>
    <trip id="320" depart="1280.00" from="937" to="1089"/>
    <trip id="322" depart="1288.00" from="937" to="1089"/>
    <trip id="323" depart="1292.00" from="937" to="1568"/>
    <trip id="324" depart="1296.00" from="-939" to="1089"/>
    <trip id="325" depart="1300.00" from="-1568" to="-1089"/>
    <trip id="326" depart="1304.00" from="937" to="1089"/>
    <trip id="329" depart="1316.00" from="-1089" to="-533"/>
    <trip id="332" depart="1328.00" from="533" to="1568"/>
    <trip id="334" depart="1336.00" from="-939" to="1089"/>
    <trip id="337" depart="1348.00" from="1089" to="1568"/>
    <trip id="338" depart="1352.00" from="533" to="939"/>
    <trip id="339" depart="1356.00" from="-1568" to="-533"/>
    <trip id="341" depart="1364.00" from="-1568" to="-1089"/>
    <trip id="345" depart="1380.00" from="1089" to="1089"/>
    <trip id="347" depart="1388.00" from="533" to="1568"/>
    <trip id="352" depart="1408.00" from="-1568" to="-937"/>
    <trip id="353" depart="1412.00" from="533" to="1089"/>
    <trip id="355" depart="1420.00" from="1089" to="1568"/>
    <trip id="356" depart="1424.00" from="937" to="1089"/>
    <trip id="359" depart="1436.00" from="-937" to="-533"/>
    <trip id="360" depart="1440.00" from="-1089" to="939"/>
    <trip id="361" depart="1444.00" from="533" to="1568"/>
    <trip id="365" depart="1460.00" from="-939" to="1568"/>
    <trip id="367" depart="1468.00" from="1089" to="1568"/>
    <trip id="369" depart="1476.00" from="-937" to="-937"/>
    <trip id="372" depart="1488.00" from="-937" to="939"/>
    <trip id="373" depart="1492.00" from="533" to="1089"/>
    <trip id="375" depart="1500.00" from="-937" to="939"/>
    <trip id="377" depart="1508.00" from="937" to="1568"/>
    <trip id="379" depart="1516.00" from="-1568" to="-937"/>
    <trip id="380" depart="1520.00" from="533" to="1568"/>
    <trip id="383" depart="1532.00" from="-939" to="1568"/>
    <trip id="384" depart="1536.00" from="-1089" to="939"/>
    <trip id="390" depart="1560.00" from="533" to="1089"/>
    <trip id="391" depart="1564.00" from="533" to="1089"/>
    <trip id="395" depart="1580.00" from="937" to="1089"/>
    <trip id="398" depart="1592.00" from="-937" to="939"/>
    <trip id="399" depart="1596.00" from="-939" to="937"/>
    <trip id="400" depart="1600.00" from="-1568" to="-937"/>
    <trip id="402" depart="1608.00" from="-939" to="-533"/>
    <trip id="404" depart="1616.00" from="-939" to="1089"/>
    <trip id="409" depart="1636.00" from="533" to="1568"/>
    <trip id="412" depart="1648.00" from="937" to="1089"/>
    <trip id="415" depart="1660.00" from="937" to="1089"/>
    <trip id="416" depart="1664.00" from="-939" to="1089"/>
    <trip id="422" depart="1688.00" from="533" to="939"/>
    <trip id="423" depart="1692.00" from="-937" to="-937"/>
    <trip id="424" depart="1696.00" from="533" to="937"/>
    <trip id="428" depart="1712.00" from="533" to="1089"/>
    <trip id="430" depart="1720.00" from="937" to="1089"/>
    <trip id="433" depart="1732.00" from="-937" to="-937"/>
    <trip id="435" depart="1740.00" from="-939" to="937"/>
    <trip id="436" depart="1744.00" from="-1568" to="-1089"/>
    <trip id="437" depart="1748.00" from="937" to="1568"/>
    <trip id="438" depart="1752.00" from="-1568" to="939"/>
    <trip id="440" depart="1760.00" from="-1568" to="-533"/>
    <trip id="442" depart="1768.00" from="937" to="1568"/>
    <trip id="447" depart="1788.00" from="-1568" to="-937"/>
    <trip id="448" depart="1792.00" from="-939" to="-533"/>
    <trip id="449" depart="1796.00" from="1089" to="1568"/>
    <trip id="451" depart="1804.00" from="937" to="1568"/>
    <trip id="458" depart="1832.00" from="1089" to="1568"/>
    <trip id="463" depart="1852.00" from="-939" to="1568"/>
    <trip id="466" depart="1864.00" from="-1568" to="-1089"/>
    <trip id="470" depart="1880.00" from="533" to="1089"/>
    <trip id="471" depart="1884.00" from="533" to="937"/>
    <trip id="475" depart="1900.00" from="533" to="939"/>
    <trip id="476" depart="1904.00" from="937" to="937"/>
    <trip id="479" depart="1916.00" from="-939" to="1568"/>
    <trip id="480" depart="1920.00" from="1089" to="1568"/>
    <trip id="481" depart="1924.00" from="533" to="939"/>
    <trip id="482" depart="1928.00" from="-1089" to="-533"/>
    <trip id="483" depart="1932.00" from="-1089" to="939"/>
    <trip id="485" depart="1940.00" from="-1568" to="-1089"/>
    <trip id="486" depart="1944.00" from="533" to="939"/>
    <trip id="487" depart="1948.00" from="-937" to="-937"/>
    <trip id="488" depart="1952.00" from="-1089" to="939"/>
    <trip id="490" depart="1960.00" from="-1089" to="939"/>
    <trip id="499" depart="1996.00" from="937" to="937"/>
    <trip id="502" depart="2008.00" from="-937" to="-937"/>
    <trip id="503" depart="2012.00" from="-1568" to="-1089"/>
    <trip id="504" depart="2016.00" from="533" to="1089"/>
    <trip id="505" depart="2020.00" from="1089" to="1568"/>
    <trip id="510" depart="2040.00" from="-1568" to="-533"/>
    <trip id="512" depart="2048.00" from="-1568" to="939"/>
    <trip id="513" depart="2052.00" from="-1089" to="939"/>
    <trip id="514" depart="2056.00" from="-1568" to="-1089"/>
    <trip id="515" depart="2060.00" from="-1568" to="-533"/>
    <trip id="518" depart="2072.00" from="-1568" to="-937"/>
    <trip id="519" depart="2076.00" from="-1568" to="-1089"/>
    <trip id="520" depart="2080.00" from="533" to="1089"/>
    <trip id="521" depart="2084.00" from="533" to="1089"/>
    <trip id="522" depart="2088.00" from="533" to="1089"/>
    <trip id="525" depart="2100.00" from="533" to="939"/>
    <trip id="526" depart="2104.00" from="-939" to="1089"/>
    <trip id="529" depart="2116.00" from="1089" to="1089"/>
    <trip id="532" depart="2128.00" from="-1089" to="-533"/>
    <trip id="533" depart="2132.00" from="1089" to="1089"/>
    <trip id="534" depart="2136.00" from="-937" to="939"/>
    <trip id="535" depart="2140.00" from="-939" to="1089"/>
    <trip id="540" depart="2160.00" from="-939" to="-533"/>
    <trip id="544" depart="2176.00" from="-937" to="-533"/>
    <trip id="548" depart="2192.00" from="533" to="1089"/>
    <trip id="549" depart="2196.00" from="1089" to="1089"/>
    <trip id="552" depart="2208.00" from="533" to="939"/>
    <trip id="553" depart="2212.00" from="533" to="939"/>
    <trip id="560" depart="2240.00" from="533" to="939"/>
    <trip id="561" depart="2244.00" from="533" to="1568"/>
    <trip id="563" depart="2252.00" from="937" to="937"/>
    <trip id="564" depart="2256.00" from="-1568" to="-533"/>
    <trip id="567" depart="2268.00" from="937" to="1089"/>
    <trip id="571" depart="2284.00" from="-937" to="-937"/>
    <trip id="573" depart="2292.00" from="533" to="1089"/>
    <trip id="574" depart="2296.00" from="-1089" to="-1089"/>
    <trip id="577" depart="2308.00" from="1089" to="1089"/>
    <trip id="578" depart="2312.00" from="-939" to="-533"/>
    <trip id="580" depart="2320.00" from="-939" to="-533"/>
    <trip id="581" depart="2324.00" from="1089" to="1089"/>
    <trip id="584" depart="2336.00" from="-1089" to="-937"/>
    <trip id="585" depart="2340.00" from="-1568" to="-1089"/>
    <trip id="586" depart="2344.00" from="-1568" to="-937"/>
    <trip id="588" depart="2352.00" from="-1568" to="-937"/>
    <trip id="589" depart="2356.00" from="1089" to="1089"/>
    <trip id="590" depart="2360.00" from="533" to="937"/>
    <trip id="591" depart="2364.00" from="-1089" to="939"/>
    <trip id="592" depart="2368.00" from="-1089" to="-1089"/>
    <trip id="594" depart="2376.00" from="1089" to="1568"/>
    <trip id="596" depart="2384.00" from="-1089" to="-1089"/>
    <trip id="601" depart="2404.00" from="1089" to="1089"/>
    <trip id="602" depart="2408.00" from="-937" to="-937"/>
    <trip id="603" depart="2412.00" from="-937" to="-937"/>
    <trip id="607" depart="2428.00" from="533" to="937"/>
    <trip id="609" depart="2436.00" from="-1568" to="-533"/>
    <trip id="612" depart="2448.00" from="533" to="1089"/>
    <trip id="613" depart="2452.00" from="533" to="937"/>
    <trip id="615" depart="2460.00" from="-939" to="1568"/>
    <trip id="619" depart="2476.00" from="-937" to="-533"/>
    <trip id="623" depart="2492.00" from="-1089" to="939"/>
    <trip id="624" depart="2496.00" from="533" to="1568"/>
    <trip id="625" depart="2500.00" from="-939" to="1089"/>
    <trip id="626" depart="2504.00" from="-939" to="937"/>
    <trip id="627" depart="2508.00" from="937" to="1089"/>
    <trip id="628" depart="2512.00" from="533" to="1568"/>
    <trip id="630" depart="2520.00" from="-1568" to="-1089"/>
    <trip id="631" depart="2524.00" from="-1089" to="939"/>
    <trip id="633" depart="2532.00" from="-939" to="-533"/>
    <trip id="635" depart="2540.00" from="-939" to="1089"/>
    <trip id="636" depart="2544.00" from="-1568" to="-937"/>
    <trip id="637" depart="2548.00" from="-1568" to="-937"/>
    <trip id="639" depart="2556.00" from="533" to="1568"/>
    <trip id="640" depart="2560.00" from="-1089" to="-1089"/>
    <trip id="642" depart="2568.00" from="533" to="1568"/>
    <trip id="645" depart="2580.00" from="-1089" to="-937"/>
    <trip id="646" depart="2584.00" from="937" to="1568"/>
    <trip id="650" depart="2600.00" from="533" to="1568"/>
    <trip id="651" depart="2604.00" from="533" to="937"/>
    <trip id="652" depart="2608.00" from="1089" to="1089"/>
    <trip id="654" depart="2616.00" from="-937" to="-937"/>
    <trip id="655" depart="2620.00" from="-1568" to="-533"/>
    <trip id="656" depart="2624.00" from="937" to="1089"/>
    <trip id="657" depart="2628.00" from="-1568" to="-1089"/>
    <trip id="660" depart="2640.00" from="533" to="939"/>
    <trip id="661" depart="2644.00" from="-1089" to="-937"/>
    <trip id="663" depart="2652.00" from="-937" to="-533"/>
    <trip id="664" depart="2656.00" from="533" to="937"/>
    <trip id="668" depart="2672.00" from="-939" to="-533"/>
    <trip id="669" depart="2676.00" from="533" to="1089"/>
    <trip id="671" depart="2684.00" from="533" to="1089"/>
    <trip id="674" depart="2696.00" from="-939" to="-533"/>
    <trip id="676" depart="2704.00" from="937" to="937"/>
    <trip id="679" depart="2716.00" from="937" to="1089"/>
    <trip id="688" depart="2752.00" from="-1568" to="939"/>
    <trip id="690" depart="2760.00" from="937" to="937"/>
    <trip id="692" depart="2768.00" from="-1089" to="-937"/>
    <trip id="693" depart="2772.00" from="533" to="1568"/>
    <trip id="696" depart="2784.00" from="-1089" to="-533"/>
    <trip id="697" depart="2788.00" from="533" to="1089"/>
    <trip id="698" depart="2792.00" from="533" to="1089"/>
    <trip id="699" depart="2796.00" from="-1089" to="-937"/>
    <trip id="703" depart="2812.00" from="937" to="1568"/>
    <trip id="705" depart="2820.00" from="-1568" to="-533"/>
    <trip id="706" depart="2824.00" from="-939" to="1568"/>
    <trip id="707" depart="2828.00" from="-1568" to="-937"/>
    <trip id="710" depart="2840.00" from="-939" to="1089"/>
    <trip id="711" depart="2844.00" from="937" to="1089"/>
    <trip id="714" depart="2856.00" from="-1568" to="-1089"/>
    <trip id="716" depart="2864.00" from="533" to="1568"/>
    <trip id="717" depart="2868.00" from="533" to="937"/>
    <trip id="719" depart="2876.00" from="-939" to="937"/>
    <trip id="721" depart="2884.00" from="-939" to="1568"/>
    <trip id="725" depart="2900.00" from="-1089" to="-533"/>
    <trip id="726" depart="2904.00" from="-1089" to="939"/>
    <trip id="728" depart="2912.00" from="-939" to="-533"/>
    <trip id="732" depart="2928.00" from="-1089" to="-937"/>
    <trip id="733" depart="2932.00" from="937" to="937"/>
    <trip id="735" depart="2940.00" from="937" to="1089"/>
    <trip id="737" depart="2948.00" from="-939" to="937"/>
    <trip id="754" depart="3016.00" from="-937" to="-937"/>
    <trip id="755" depart="3020.00" from="-939" to="1568"/>
    <trip id="758" depart="3032.00" from="1089" to="1089"/>
    <trip id="760" depart="3040.00" from="-1568" to="-1089"/>
    <trip id="761" depart="3044.00" from="533" to="1089"/>
    <trip id="763" depart="3052.00" from="-1568" to="-533"/>
    <trip id="765" depart="3060.00" from="-1568" to="939"/>
    <trip id="767" depart="3068.00" from="533" to="1089"/>
    <trip id="768" depart="3072.00" from="937" to="1089"/>
    <trip id="773" depart="3092.00" from="533" to="1568"/>
    <trip id="774" depart="3096.00" from="937" to="1568"/>
    <trip id="775" depart="3100.00" from="533" to="1089"/>
    <trip id="776" depart="3104.00" from="-1089" to="-533"/>
    <trip id="780" depart="3120.00" from="-939" to="1568"/>
    <trip id="781" depart="3124.00" from="-1089" to="-937"/>
    <trip id="782" depart="3128.00" from="937" to="937"/>
    <trip id="783" depart="3132.00" from="-939" to="937"/>
    <trip id="785" depart="3140.00" from="937" to="1568"/>
    <trip id="786" depart="3144.00" from="-939" to="1568"/>
    <trip id="787" depart="3148.00" from="-937" to="939"/>
    <trip id="788" depart="3152.00" from="533" to="1568"/>
    <trip id="789" depart="3156.00" from="-1568" to="939"/>
    <trip id="791" depart="3164.00" from="-1089" to="-1089"/>
    <trip id="792" depart="3168.00" from="-1568" to="-533"/>
    <trip id="794" depart="3176.00" from="-937" to="939"/>
    <trip id="795" depart="3180.00" from="937" to="937"/>
    <trip id="799" depart="3196.00" from="-939" to="-533"/>
    <trip id="803" depart="3212.00" from="-939" to="937"/>
    <trip id="804" depart="3216.00" from="-1089" to="-1089"/>
    <trip id="805" depart="3220.00" from="1089" to="1568"/>
    <trip id="808" depart="3232.00" from="-939" to="1568"/>
    <trip id="809" depart="3236.00" from="-937" to="939"/>
    <trip id="810" depart="3240.00" from="-939" to="937"/>
    <trip id="812" depart="3248.00" from="-1089" to="-1089"/>
    <trip id="813" depart="3252.00" from="-939" to="1089"/>
    <trip id="816" depart="3264.00" from="533" to="939"/>
    <trip id="820" depart="3280.00" from="-1568" to="-533"/>
    <trip id="821" depart="3284.00" from="-1089" to="-937"/>
    <trip id="823" depart="3292.00" from="-1568" to="939"/>
    <trip id="824" depart="3296.00" from="-1568" to="-937"/>
    <trip id="826" depart="3304.00" from="533" to="1089"/>
    <trip id="827" depart="3308.00" from="-939" to="1089"/>
    <trip id="829" depart="3316.00" from="937" to="1089"/>
    <trip id="833" depart="3332.00" from="1089" to="1089"/>
    <trip id="834" depart="3336.00" from="-939" to="937"/>
    <trip id="836" depart="3344.00" from="533" to="937"/>
    <trip id="837" depart="3348.00" from="-937" to="-937"/>
    <trip id="838" depart="3352.00" from="-939" to="-533"/>
    <trip id="840" depart="3360.00" from="-939" to="937"/>
    <trip id="841" depart="3364.00" from="-1568" to="939"/>
    <trip id="845" depart="3380.00" from="937" to="937"/>
    <trip id="848" depart="3392.00" from="-1089" to="-937"/>
    <trip id="849" depart="3396.00" from="-939" to="1089"/>
    <trip id="850" depart="3400.00" from="1089" to="1089"/>
    <trip id="852" depart="3408.00" from="-1568" to="939"/>
    <trip id="855" depart="3420.00" from="-939" to="1568"/>
    <trip id="858" depart="3432.00" from="937" to="1568"/>
    <trip id="859" depart="3436.00" from="533" to="937"/>
    <trip id="862" depart="3448.00" from="533" to="937"/>
    <trip id="865" depart="3460.00" from="1089" to="1568"/>
    <trip id="869" depart="3476.00" from="-1089" to="-937"/>
    <trip id="874" depart="3496.00" from="-1089" to="-533"/>
    <trip id="877" depart="3508.00" from="-1568" to="939"/>
    <trip id="878" depart="3512.00" from="-937" to="-937"/>
    <trip id="879" depart="3516.00" from="533" to="937"/>
    <trip id="880" depart="3520.00" from="1089" to="1568"/>
    <trip id="883" depart="3532.00" from="-1568" to="939"/>
    <trip id="884" depart="3536.00" from="-937" to="-937"/>
    <trip id="886" depart="3544.00" from="-937" to="-937"/>
    <trip id="887" depart="3548.00" from="937" to="937"/>
    <trip id="888" depart="3552.00" from="-1568" to="-1089"/>
    <trip id="890" depart="3560.00" from="937" to="937"/>
    <trip id="891" depart="3564.00" from="937" to="937"/>
    <trip id="892" depart="3568.00" from="-937" to="-937"/>
    <trip id="894" depart="3576.00" from="-939" to="-533"/>
    <trip id="895" depart="3580.00" from="-939" to="-533"/>
    <trip id="898" depart="3592.00" from="1089" to="1568"/>
</routes>
