<?xml version="1.0" encoding="UTF-8"?>

<!-- generated on 2025-03-14 13:35:50.728116 by randomTrips.py v1_19_0+1770-8bb5c24c187
<configuration>
    <net-file value="random_grid_10.net.xml"/>
    <output-trip-file value="random_grid_10_medium.trips.xml"/>
    <validate value="True"/>
    <period value="3.0"/>
</configuration>
-->

<!-- generated on 2025-03-14 13:35:50 by Eclipse SUMO duarouter Version v1_19_0+1770-8bb5c24c187
<configuration xmlns:xsi="http://www.w3.org/2001/XMLSchema-instance" xsi:noNamespaceSchemaLocation="http://sumo.dlr.de/xsd/duarouterConfiguration.xsd">

    <input>
        <net-file value="random_grid_10.net.xml"/>
        <route-files value="random_grid_10_medium.trips.xml"/>
    </input>

    <output>
        <output-file value="random_grid_10_medium.trips.xml.tmp"/>
        <alternatives-output value="NUL"/>
        <write-trips value="true"/>
    </output>

    <time>
        <begin value="0.0"/>
        <end value="3600.0"/>
    </time>

    <report>
        <no-warnings value="true"/>
        <ignore-errors value="true"/>
        <no-step-log value="true"/>
    </report>

</configuration>
-->

<routes xmlns:xsi="http://www.w3.org/2001/XMLSchema-instance" xsi:noNamespaceSchemaLocation="http://sumo.dlr.de/xsd/routes_file.xsd">
    <trip id="1" depart="3.00" from="-1568" to="-533"/>
    <trip id="2" depart="6.00" from="533" to="1568"/>
    <trip id="6" depart="18.00" from="-1089" to="-533"/>
    <trip id="7" depart="21.00" from="1089" to="1089"/>
    <trip id="10" depart="30.00" from="533" to="1568"/>
    <trip id="11" depart="33.00" from="-937" to="-533"/>
    <trip id="13" depart="39.00" from="-1089" to="-1089"/>
    <trip id="14" depart="42.00" from="533" to="1568"/>
    <trip id="15" depart="45.00" from="533" to="937"/>
    <trip id="18" depart="54.00" from="533" to="1568"/>
    <trip id="19" depart="57.00" from="937" to="1568"/>
    <trip id="21" depart="63.00" from="-1568" to="-937"/>
    <trip id="22" depart="66.00" from="-1089" to="-533"/>
    <trip id="23" depart="69.00" from="-1089" to="-533"/>
    <trip id="25" depart="75.00" from="-937" to="-533"/>
    <trip id="26" depart="78.00" from="-1568" to="939"/>
    <trip id="27" depart="81.00" from="1089" to="1568"/>
    <trip id="29" depart="87.00" from="-1568" to="-937"/>
    <trip id="30" depart="90.00" from="937" to="1568"/>
    <trip id="31" depart="93.00" from="-939" to="1568"/>
    <trip id="32" depart="96.00" from="533" to="937"/>
    <trip id="33" depart="99.00" from="-1568" to="-1089"/>
    <trip id="34" depart="102.00" from="-937" to="-533"/>
    <trip id="35" depart="105.00" from="-1568" to="939"/>
    <trip id="38" depart="114.00" from="937" to="1089"/>
    <trip id="39" depart="117.00" from="-1568" to="-533"/>
    <trip id="40" depart="120.00" from="-939" to="-533"/>
    <trip id="42" depart="126.00" from="-937" to="-533"/>
    <trip id="43" depart="129.00" from="937" to="1089"/>
    <trip id="44" depart="132.00" from="-1089" to="-1089"/>
    <trip id="47" depart="141.00" from="-1089" to="-937"/>
    <trip id="48" depart="144.00" from="937" to="1089"/>
    <trip id="51" depart="153.00" from="1089" to="1089"/>
    <trip id="56" depart="168.00" from="-939" to="-533"/>
    <trip id="60" depart="180.00" from="533" to="1089"/>
    <trip id="61" depart="183.00" from="533" to="1089"/>
    <trip id="62" depart="186.00" from="-1089" to="-937"/>
    <trip id="63" depart="189.00" from="-1089" to="939"/>
    <trip id="64" depart="192.00" from="937" to="937"/>
    <trip id="70" depart="210.00" from="-939" to="1089"/>
    <trip id="71" depart="213.00" from="-1568" to="939"/>
    <trip id="72" depart="216.00" from="-937" to="-533"/>
    <trip id="73" depart="219.00" from="-939" to="937"/>
    <trip id="74" depart="222.00" from="-1568" to="-937"/>
    <trip id="75" depart="225.00" from="937" to="1568"/>
    <trip id="76" depart="228.00" from="-939" to="1089"/>
    <trip id="77" depart="231.00" from="-1089" to="-533"/>
    <trip id="79" depart="237.00" from="-1568" to="-533"/>
    <trip id="81" depart="243.00" from="-1568" to="939"/>
    <trip id="84" depart="252.00" from="-1568" to="-1089"/>
    <trip id="85" depart="255.00" from="937" to="1089"/>
    <trip id="86" depart="258.00" from="-939" to="937"/>
    <trip id="90" depart="270.00" from="533" to="1568"/>
    <trip id="92" depart="276.00" from="-937" to="-937"/>
    <trip id="95" depart="285.00" from="-937" to="-533"/>
    <trip id="96" depart="288.00" from="-1568" to="939"/>
    <trip id="99" depart="297.00" from="937" to="937"/>
    <trip id="102" depart="306.00" from="-939" to="-533"/>
    <trip id="104" depart="312.00" from="-937" to="939"/>
    <trip id="108" depart="324.00" from="-939" to="937"/>
    <trip id="109" depart="327.00" from="-1568" to="-937"/>
    <trip id="110" depart="330.00" from="937" to="1568"/>
    <trip id="111" depart="333.00" from="-939" to="937"/>
    <trip id="113" depart="339.00" from="-939" to="937"/>
    <trip id="114" depart="342.00" from="-1568" to="939"/>
    <trip id="115" depart="345.00" from="-1089" to="-533"/>
    <trip id="116" depart="348.00" from="1089" to="1568"/>
    <trip id="117" depart="351.00" from="-1568" to="-1089"/>
    <trip id="119" depart="357.00" from="1089" to="1568"/>
    <trip id="123" depart="369.00" from="-1568" to="-937"/>
    <trip id="128" depart="384.00" from="-1089" to="-533"/>
    <trip id="129" depart="387.00" from="-1568" to="939"/>
    <trip id="131" depart="393.00" from="-937" to="-533"/>
    <trip id="132" depart="396.00" from="533" to="1568"/>
    <trip id="137" depart="411.00" from="-1089" to="-1089"/>
    <trip id="144" depart="432.00" from="-937" to="-533"/>
    <trip id="147" depart="441.00" from="533" to="1089"/>
    <trip id="149" depart="447.00" from="-1089" to="939"/>
    <trip id="150" depart="450.00" from="937" to="1089"/>
    <trip id="151" depart="453.00" from="533" to="1568"/>
    <trip id="152" depart="456.00" from="-1568" to="-1089"/>
    <trip id="153" depart="459.00" from="-937" to="939"/>
    <trip id="154" depart="462.00" from="533" to="939"/>
    <trip id="156" depart="468.00" from="-1568" to="-1089"/>
    <trip id="157" depart="471.00" from="533" to="939"/>
    <trip id="159" depart="477.00" from="-1568" to="939"/>
    <trip id="161" depart="483.00" from="533" to="939"/>
    <trip id="163" depart="489.00" from="-937" to="939"/>
    <trip id="164" depart="492.00" from="533" to="939"/>
    <trip id="171" depart="513.00" from="-1089" to="-533"/>
    <trip id="172" depart="516.00" from="-937" to="939"/>
    <trip id="175" depart="525.00" from="937" to="1089"/>
    <trip id="181" depart="543.00" from="1089" to="1089"/>
    <trip id="184" depart="552.00" from="-1089" to="939"/>
    <trip id="185" depart="555.00" from="-939" to="937"/>
    <trip id="186" depart="558.00" from="533" to="1568"/>
    <trip id="191" depart="573.00" from="-937" to="-937"/>
    <trip id="192" depart="576.00" from="-937" to="-937"/>
    <trip id="193" depart="579.00" from="-1089" to="-937"/>
    <trip id="194" depart="582.00" from="937" to="1568"/>
    <trip id="195" depart="585.00" from="937" to="1568"/>
    <trip id="197" depart="591.00" from="-1089" to="-937"/>
    <trip id="198" depart="594.00" from="-939" to="1568"/>
    <trip id="199" depart="597.00" from="1089" to="1089"/>
    <trip id="200" depart="600.00" from="-939" to="-533"/>
    <trip id="205" depart="615.00" from="533" to="937"/>
    <trip id="207" depart="621.00" from="-1568" to="-1089"/>
    <trip id="212" depart="636.00" from="-939" to="-533"/>
    <trip id="214" depart="642.00" from="533" to="937"/>
    <trip id="215" depart="645.00" from="-1089" to="-937"/>
    <trip id="216" depart="648.00" from="-1568" to="939"/>
    <trip id="219" depart="657.00" from="-939" to="937"/>
    <trip id="222" depart="666.00" from="937" to="1568"/>
    <trip id="223" depart="669.00" from="533" to="1089"/>
    <trip id="224" depart="672.00" from="533" to="1089"/>
    <trip id="225" depart="675.00" from="937" to="937"/>
    <trip id="226" depart="678.00" from="-939" to="-533"/>
    <trip id="228" depart="684.00" from="533" to="1089"/>
    <trip id="230" depart="690.00" from="-1089" to="-937"/>
    <trip id="231" depart="693.00" from="-1568" to="-937"/>
    <trip id="236" depart="708.00" from="-937" to="-533"/>
    <trip id="237" depart="711.00" from="-937" to="939"/>
    <trip id="238" depart="714.00" from="1089" to="1568"/>
    <trip id="239" depart="717.00" from="533" to="937"/>
    <trip id="242" depart="726.00" from="533" to="939"/>
    <trip id="244" depart="732.00" from="-939" to="1568"/>
    <trip id="245" depart="735.00" from="-1568" to="-533"/>
    <trip id="248" depart="744.00" from="-937" to="-533"/>
    <trip id="254" depart="762.00" from="-1089" to="-937"/>
    <trip id="255" depart="765.00" from="-1568" to="-937"/>
    <trip id="257" depart="771.00" from="533" to="937"/>
    <trip id="258" depart="774.00" from="-1568" to="-1089"/>
    <trip id="264" depart="792.00" from="-1089" to="-533"/>
    <trip id="266" depart="798.00" from="-939" to="-533"/>
    <trip id="270" depart="810.00" from="533" to="939"/>
    <trip id="271" depart="813.00" from="-1089" to="-1089"/>
    <trip id="275" depart="825.00" from="1089" to="1568"/>
    <trip id="277" depart="831.00" from="533" to="1568"/>
    <trip id="278" depart="834.00" from="-1089" to="939"/>
    <trip id="280" depart="840.00" from="-937" to="-937"/>
    <trip id="282" depart="846.00" from="533" to="937"/>
    <trip id="283" depart="849.00" from="-1089" to="939"/>
    <trip id="285" depart="855.00" from="1089" to="1089"/>
    <trip id="286" depart="858.00" from="533" to="939"/>
    <trip id="288" depart="864.00" from="-939" to="1089"/>
    <trip id="289" depart="867.00" from="-939" to="937"/>
    <trip id="293" depart="879.00" from="-939" to="1568"/>
    <trip id="297" depart="891.00" from="-937" to="939"/>
    <trip id="299" depart="897.00" from="-1089" to="939"/>
    <trip id="301" depart="903.00" from="-939" to="937"/>
    <trip id="302" depart="906.00" from="1089" to="1568"/>
    <trip id="303" depart="909.00" from="-939" to="937"/>
    <trip id="304" depart="912.00" from="-1089" to="-533"/>
    <trip id="306" depart="918.00" from="1089" to="1089"/>
    <trip id="310" depart="930.00" from="-1568" to="-1089"/>
    <trip id="311" depart="933.00" from="-1568" to="-1089"/>
    <trip id="312" depart="936.00" from="-939" to="937"/>
    <trip id="313" depart="939.00" from="-1568" to="-533"/>
    <trip id="314" depart="942.00" from="-939" to="937"/>
    <trip id="315" depart="945.00" from="937" to="1089"/>
    <trip id="316" depart="948.00" from="-1568" to="-1089"/>
    <trip id="317" depart="951.00" from="-1568" to="-533"/>
    <trip id="318" depart="954.00" from="-1568" to="-1089"/>
    <trip id="319" depart="957.00" from="-939" to="-533"/>
    <trip id="320" depart="960.00" from="937" to="1089"/>
    <trip id="322" depart="966.00" from="937" to="1089"/>
    <trip id="323" depart="969.00" from="937" to="1568"/>
    <trip id="324" depart="972.00" from="-939" to="1089"/>
    <trip id="325" depart="975.00" from="-1568" to="-1089"/>
    <trip id="326" depart="978.00" from="937" to="1089"/>
    <trip id="329" depart="987.00" from="-1089" to="-533"/>
    <trip id="332" depart="996.00" from="533" to="1568"/>
    <trip id="334" depart="1002.00" from="-939" to="1089"/>
    <trip id="337" depart="1011.00" from="1089" to="1568"/>
    <trip id="338" depart="1014.00" from="533" to="939"/>
    <trip id="339" depart="1017.00" from="-1568" to="-533"/>
    <trip id="341" depart="1023.00" from="-1568" to="-1089"/>
    <trip id="345" depart="1035.00" from="1089" to="1089"/>
    <trip id="347" depart="1041.00" from="533" to="1568"/>
    <trip id="352" depart="1056.00" from="-1568" to="-937"/>
    <trip id="353" depart="1059.00" from="533" to="1089"/>
    <trip id="355" depart="1065.00" from="1089" to="1568"/>
    <trip id="356" depart="1068.00" from="937" to="1089"/>
    <trip id="359" depart="1077.00" from="-937" to="-533"/>
    <trip id="360" depart="1080.00" from="-1089" to="939"/>
    <trip id="361" depart="1083.00" from="533" to="1568"/>
    <trip id="365" depart="1095.00" from="-939" to="1568"/>
    <trip id="367" depart="1101.00" from="1089" to="1568"/>
    <trip id="369" depart="1107.00" from="-937" to="-937"/>
    <trip id="372" depart="1116.00" from="-937" to="939"/>
    <trip id="373" depart="1119.00" from="533" to="1089"/>
    <trip id="375" depart="1125.00" from="-937" to="939"/>
    <trip id="377" depart="1131.00" from="937" to="1568"/>
    <trip id="379" depart="1137.00" from="-1568" to="-937"/>
    <trip id="380" depart="1140.00" from="533" to="1568"/>
    <trip id="383" depart="1149.00" from="-939" to="1568"/>
    <trip id="384" depart="1152.00" from="-1089" to="939"/>
    <trip id="390" depart="1170.00" from="533" to="1089"/>
    <trip id="391" depart="1173.00" from="533" to="1089"/>
    <trip id="395" depart="1185.00" from="937" to="1089"/>
    <trip id="398" depart="1194.00" from="-937" to="939"/>
    <trip id="399" depart="1197.00" from="-939" to="937"/>
    <trip id="400" depart="1200.00" from="-1568" to="-937"/>
    <trip id="402" depart="1206.00" from="-939" to="-533"/>
    <trip id="404" depart="1212.00" from="-939" to="1089"/>
    <trip id="409" depart="1227.00" from="533" to="1568"/>
    <trip id="412" depart="1236.00" from="937" to="1089"/>
    <trip id="415" depart="1245.00" from="937" to="1089"/>
    <trip id="416" depart="1248.00" from="-939" to="1089"/>
    <trip id="422" depart="1266.00" from="533" to="939"/>
    <trip id="423" depart="1269.00" from="-937" to="-937"/>
    <trip id="424" depart="1272.00" from="533" to="937"/>
    <trip id="428" depart="1284.00" from="533" to="1089"/>
    <trip id="430" depart="1290.00" from="937" to="1089"/>
    <trip id="433" depart="1299.00" from="-937" to="-937"/>
    <trip id="435" depart="1305.00" from="-939" to="937"/>
    <trip id="436" depart="1308.00" from="-1568" to="-1089"/>
    <trip id="437" depart="1311.00" from="937" to="1568"/>
    <trip id="438" depart="1314.00" from="-1568" to="939"/>
    <trip id="440" depart="1320.00" from="-1568" to="-533"/>
    <trip id="442" depart="1326.00" from="937" to="1568"/>
    <trip id="447" depart="1341.00" from="-1568" to="-937"/>
    <trip id="448" depart="1344.00" from="-939" to="-533"/>
    <trip id="449" depart="1347.00" from="1089" to="1568"/>
    <trip id="451" depart="1353.00" from="937" to="1568"/>
    <trip id="458" depart="1374.00" from="1089" to="1568"/>
    <trip id="463" depart="1389.00" from="-939" to="1568"/>
    <trip id="466" depart="1398.00" from="-1568" to="-1089"/>
    <trip id="470" depart="1410.00" from="533" to="1089"/>
    <trip id="471" depart="1413.00" from="533" to="937"/>
    <trip id="475" depart="1425.00" from="533" to="939"/>
    <trip id="476" depart="1428.00" from="937" to="937"/>
    <trip id="479" depart="1437.00" from="-939" to="1568"/>
    <trip id="480" depart="1440.00" from="1089" to="1568"/>
    <trip id="481" depart="1443.00" from="533" to="939"/>
    <trip id="482" depart="1446.00" from="-1089" to="-533"/>
    <trip id="483" depart="1449.00" from="-1089" to="939"/>
    <trip id="485" depart="1455.00" from="-1568" to="-1089"/>
    <trip id="486" depart="1458.00" from="533" to="939"/>
    <trip id="487" depart="1461.00" from="-937" to="-937"/>
    <trip id="488" depart="1464.00" from="-1089" to="939"/>
    <trip id="490" depart="1470.00" from="-1089" to="939"/>
    <trip id="499" depart="1497.00" from="937" to="937"/>
    <trip id="502" depart="1506.00" from="-937" to="-937"/>
    <trip id="503" depart="1509.00" from="-1568" to="-1089"/>
    <trip id="504" depart="1512.00" from="533" to="1089"/>
    <trip id="505" depart="1515.00" from="1089" to="1568"/>
    <trip id="510" depart="1530.00" from="-1568" to="-533"/>
    <trip id="512" depart="1536.00" from="-1568" to="939"/>
    <trip id="513" depart="1539.00" from="-1089" to="939"/>
    <trip id="514" depart="1542.00" from="-1568" to="-1089"/>
    <trip id="515" depart="1545.00" from="-1568" to="-533"/>
    <trip id="518" depart="1554.00" from="-1568" to="-937"/>
    <trip id="519" depart="1557.00" from="-1568" to="-1089"/>
    <trip id="520" depart="1560.00" from="533" to="1089"/>
    <trip id="521" depart="1563.00" from="533" to="1089"/>
    <trip id="522" depart="1566.00" from="533" to="1089"/>
    <trip id="525" depart="1575.00" from="533" to="939"/>
    <trip id="526" depart="1578.00" from="-939" to="1089"/>
    <trip id="529" depart="1587.00" from="1089" to="1089"/>
    <trip id="532" depart="1596.00" from="-1089" to="-533"/>
    <trip id="533" depart="1599.00" from="1089" to="1089"/>
    <trip id="534" depart="1602.00" from="-937" to="939"/>
    <trip id="535" depart="1605.00" from="-939" to="1089"/>
    <trip id="540" depart="1620.00" from="-939" to="-533"/>
    <trip id="544" depart="1632.00" from="-937" to="-533"/>
    <trip id="548" depart="1644.00" from="533" to="1089"/>
    <trip id="549" depart="1647.00" from="1089" to="1089"/>
    <trip id="552" depart="1656.00" from="533" to="939"/>
    <trip id="553" depart="1659.00" from="533" to="939"/>
    <trip id="560" depart="1680.00" from="533" to="939"/>
    <trip id="561" depart="1683.00" from="533" to="1568"/>
    <trip id="563" depart="1689.00" from="937" to="937"/>
    <trip id="564" depart="1692.00" from="-1568" to="-533"/>
    <trip id="567" depart="1701.00" from="937" to="1089"/>
    <trip id="571" depart="1713.00" from="-937" to="-937"/>
    <trip id="573" depart="1719.00" from="533" to="1089"/>
    <trip id="574" depart="1722.00" from="-1089" to="-1089"/>
    <trip id="577" depart="1731.00" from="1089" to="1089"/>
    <trip id="578" depart="1734.00" from="-939" to="-533"/>
    <trip id="580" depart="1740.00" from="-939" to="-533"/>
    <trip id="581" depart="1743.00" from="1089" to="1089"/>
    <trip id="584" depart="1752.00" from="-1089" to="-937"/>
    <trip id="585" depart="1755.00" from="-1568" to="-1089"/>
    <trip id="586" depart="1758.00" from="-1568" to="-937"/>
    <trip id="588" depart="1764.00" from="-1568" to="-937"/>
    <trip id="589" depart="1767.00" from="1089" to="1089"/>
    <trip id="590" depart="1770.00" from="533" to="937"/>
    <trip id="591" depart="1773.00" from="-1089" to="939"/>
    <trip id="592" depart="1776.00" from="-1089" to="-1089"/>
    <trip id="594" depart="1782.00" from="1089" to="1568"/>
    <trip id="596" depart="1788.00" from="-1089" to="-1089"/>
    <trip id="601" depart="1803.00" from="1089" to="1089"/>
    <trip id="602" depart="1806.00" from="-937" to="-937"/>
    <trip id="603" depart="1809.00" from="-937" to="-937"/>
    <trip id="607" depart="1821.00" from="533" to="937"/>
    <trip id="609" depart="1827.00" from="-1568" to="-533"/>
    <trip id="612" depart="1836.00" from="533" to="1089"/>
    <trip id="613" depart="1839.00" from="533" to="937"/>
    <trip id="615" depart="1845.00" from="-939" to="1568"/>
    <trip id="619" depart="1857.00" from="-937" to="-533"/>
    <trip id="623" depart="1869.00" from="-1089" to="939"/>
    <trip id="624" depart="1872.00" from="533" to="1568"/>
    <trip id="625" depart="1875.00" from="-939" to="1089"/>
    <trip id="626" depart="1878.00" from="-939" to="937"/>
    <trip id="627" depart="1881.00" from="937" to="1089"/>
    <trip id="628" depart="1884.00" from="533" to="1568"/>
    <trip id="630" depart="1890.00" from="-1568" to="-1089"/>
    <trip id="631" depart="1893.00" from="-1089" to="939"/>
    <trip id="633" depart="1899.00" from="-939" to="-533"/>
    <trip id="635" depart="1905.00" from="-939" to="1089"/>
    <trip id="636" depart="1908.00" from="-1568" to="-937"/>
    <trip id="637" depart="1911.00" from="-1568" to="-937"/>
    <trip id="639" depart="1917.00" from="533" to="1568"/>
    <trip id="640" depart="1920.00" from="-1089" to="-1089"/>
    <trip id="642" depart="1926.00" from="533" to="1568"/>
    <trip id="645" depart="1935.00" from="-1089" to="-937"/>
    <trip id="646" depart="1938.00" from="937" to="1568"/>
    <trip id="650" depart="1950.00" from="533" to="1568"/>
    <trip id="651" depart="1953.00" from="533" to="937"/>
    <trip id="652" depart="1956.00" from="1089" to="1089"/>
    <trip id="654" depart="1962.00" from="-937" to="-937"/>
    <trip id="655" depart="1965.00" from="-1568" to="-533"/>
    <trip id="656" depart="1968.00" from="937" to="1089"/>
    <trip id="657" depart="1971.00" from="-1568" to="-1089"/>
    <trip id="660" depart="1980.00" from="533" to="939"/>
    <trip id="661" depart="1983.00" from="-1089" to="-937"/>
    <trip id="663" depart="1989.00" from="-937" to="-533"/>
    <trip id="664" depart="1992.00" from="533" to="937"/>
    <trip id="668" depart="2004.00" from="-939" to="-533"/>
    <trip id="669" depart="2007.00" from="533" to="1089"/>
    <trip id="671" depart="2013.00" from="533" to="1089"/>
    <trip id="674" depart="2022.00" from="-939" to="-533"/>
    <trip id="676" depart="2028.00" from="937" to="937"/>
    <trip id="679" depart="2037.00" from="937" to="1089"/>
    <trip id="688" depart="2064.00" from="-1568" to="939"/>
    <trip id="690" depart="2070.00" from="937" to="937"/>
    <trip id="692" depart="2076.00" from="-1089" to="-937"/>
    <trip id="693" depart="2079.00" from="533" to="1568"/>
    <trip id="696" depart="2088.00" from="-1089" to="-533"/>
    <trip id="697" depart="2091.00" from="533" to="1089"/>
    <trip id="698" depart="2094.00" from="533" to="1089"/>
    <trip id="699" depart="2097.00" from="-1089" to="-937"/>
    <trip id="703" depart="2109.00" from="937" to="1568"/>
    <trip id="705" depart="2115.00" from="-1568" to="-533"/>
    <trip id="706" depart="2118.00" from="-939" to="1568"/>
    <trip id="707" depart="2121.00" from="-1568" to="-937"/>
    <trip id="710" depart="2130.00" from="-939" to="1089"/>
    <trip id="711" depart="2133.00" from="937" to="1089"/>
    <trip id="714" depart="2142.00" from="-1568" to="-1089"/>
    <trip id="716" depart="2148.00" from="533" to="1568"/>
    <trip id="717" depart="2151.00" from="533" to="937"/>
    <trip id="719" depart="2157.00" from="-939" to="937"/>
    <trip id="721" depart="2163.00" from="-939" to="1568"/>
    <trip id="725" depart="2175.00" from="-1089" to="-533"/>
    <trip id="726" depart="2178.00" from="-1089" to="939"/>
    <trip id="728" depart="2184.00" from="-939" to="-533"/>
    <trip id="732" depart="2196.00" from="-1089" to="-937"/>
    <trip id="733" depart="2199.00" from="937" to="937"/>
    <trip id="735" depart="2205.00" from="937" to="1089"/>
    <trip id="737" depart="2211.00" from="-939" to="937"/>
    <trip id="754" depart="2262.00" from="-937" to="-937"/>
    <trip id="755" depart="2265.00" from="-939" to="1568"/>
    <trip id="758" depart="2274.00" from="1089" to="1089"/>
    <trip id="760" depart="2280.00" from="-1568" to="-1089"/>
    <trip id="761" depart="2283.00" from="533" to="1089"/>
    <trip id="763" depart="2289.00" from="-1568" to="-533"/>
    <trip id="765" depart="2295.00" from="-1568" to="939"/>
    <trip id="767" depart="2301.00" from="533" to="1089"/>
    <trip id="768" depart="2304.00" from="937" to="1089"/>
    <trip id="773" depart="2319.00" from="533" to="1568"/>
    <trip id="774" depart="2322.00" from="937" to="1568"/>
    <trip id="775" depart="2325.00" from="533" to="1089"/>
    <trip id="776" depart="2328.00" from="-1089" to="-533"/>
    <trip id="780" depart="2340.00" from="-939" to="1568"/>
    <trip id="781" depart="2343.00" from="-1089" to="-937"/>
    <trip id="782" depart="2346.00" from="937" to="937"/>
    <trip id="783" depart="2349.00" from="-939" to="937"/>
    <trip id="785" depart="2355.00" from="937" to="1568"/>
    <trip id="786" depart="2358.00" from="-939" to="1568"/>
    <trip id="787" depart="2361.00" from="-937" to="939"/>
    <trip id="788" depart="2364.00" from="533" to="1568"/>
    <trip id="789" depart="2367.00" from="-1568" to="939"/>
    <trip id="791" depart="2373.00" from="-1089" to="-1089"/>
    <trip id="792" depart="2376.00" from="-1568" to="-533"/>
    <trip id="794" depart="2382.00" from="-937" to="939"/>
    <trip id="795" depart="2385.00" from="937" to="937"/>
    <trip id="799" depart="2397.00" from="-939" to="-533"/>
    <trip id="803" depart="2409.00" from="-939" to="937"/>
    <trip id="804" depart="2412.00" from="-1089" to="-1089"/>
    <trip id="805" depart="2415.00" from="1089" to="1568"/>
    <trip id="808" depart="2424.00" from="-939" to="1568"/>
    <trip id="809" depart="2427.00" from="-937" to="939"/>
    <trip id="810" depart="2430.00" from="-939" to="937"/>
    <trip id="812" depart="2436.00" from="-1089" to="-1089"/>
    <trip id="813" depart="2439.00" from="-939" to="1089"/>
    <trip id="816" depart="2448.00" from="533" to="939"/>
    <trip id="820" depart="2460.00" from="-1568" to="-533"/>
    <trip id="821" depart="2463.00" from="-1089" to="-937"/>
    <trip id="823" depart="2469.00" from="-1568" to="939"/>
    <trip id="824" depart="2472.00" from="-1568" to="-937"/>
    <trip id="826" depart="2478.00" from="533" to="1089"/>
    <trip id="827" depart="2481.00" from="-939" to="1089"/>
    <trip id="829" depart="2487.00" from="937" to="1089"/>
    <trip id="833" depart="2499.00" from="1089" to="1089"/>
    <trip id="834" depart="2502.00" from="-939" to="937"/>
    <trip id="836" depart="2508.00" from="533" to="937"/>
    <trip id="837" depart="2511.00" from="-937" to="-937"/>
    <trip id="838" depart="2514.00" from="-939" to="-533"/>
    <trip id="840" depart="2520.00" from="-939" to="937"/>
    <trip id="841" depart="2523.00" from="-1568" to="939"/>
    <trip id="845" depart="2535.00" from="937" to="937"/>
    <trip id="848" depart="2544.00" from="-1089" to="-937"/>
    <trip id="849" depart="2547.00" from="-939" to="1089"/>
    <trip id="850" depart="2550.00" from="1089" to="1089"/>
    <trip id="852" depart="2556.00" from="-1568" to="939"/>
    <trip id="855" depart="2565.00" from="-939" to="1568"/>
    <trip id="858" depart="2574.00" from="937" to="1568"/>
    <trip id="859" depart="2577.00" from="533" to="937"/>
    <trip id="862" depart="2586.00" from="533" to="937"/>
    <trip id="865" depart="2595.00" from="1089" to="1568"/>
    <trip id="869" depart="2607.00" from="-1089" to="-937"/>
    <trip id="874" depart="2622.00" from="-1089" to="-533"/>
    <trip id="877" depart="2631.00" from="-1568" to="939"/>
    <trip id="878" depart="2634.00" from="-937" to="-937"/>
    <trip id="879" depart="2637.00" from="533" to="937"/>
    <trip id="880" depart="2640.00" from="1089" to="1568"/>
    <trip id="883" depart="2649.00" from="-1568" to="939"/>
    <trip id="884" depart="2652.00" from="-937" to="-937"/>
    <trip id="886" depart="2658.00" from="-937" to="-937"/>
    <trip id="887" depart="2661.00" from="937" to="937"/>
    <trip id="888" depart="2664.00" from="-1568" to="-1089"/>
    <trip id="890" depart="2670.00" from="937" to="937"/>
    <trip id="891" depart="2673.00" from="937" to="937"/>
    <trip id="892" depart="2676.00" from="-937" to="-937"/>
    <trip id="894" depart="2682.00" from="-939" to="-533"/>
    <trip id="895" depart="2685.00" from="-939" to="-533"/>
    <trip id="898" depart="2694.00" from="1089" to="1568"/>
    <trip id="900" depart="2700.00" from="-939" to="1568"/>
    <trip id="901" depart="2703.00" from="-1089" to="-937"/>
    <trip id="905" depart="2715.00" from="-937" to="939"/>
    <trip id="906" depart="2718.00" from="937" to="1089"/>
    <trip id="907" depart="2721.00" from="-1568" to="939"/>
    <trip id="910" depart="2730.00" from="1089" to="1089"/>
    <trip id="911" depart="2733.00" from="533" to="939"/>
    <trip id="919" depart="2757.00" from="-1089" to="939"/>
    <trip id="920" depart="2760.00" from="-1568" to="939"/>
    <trip id="921" depart="2763.00" from="-939" to="1089"/>
    <trip id="922" depart="2766.00" from="937" to="937"/>
    <trip id="923" depart="2769.00" from="-939" to="-533"/>
    <trip id="924" depart="2772.00" from="-1089" to="-533"/>
    <trip id="925" depart="2775.00" from="-939" to="-533"/>
    <trip id="927" depart="2781.00" from="533" to="1089"/>
    <trip id="929" depart="2787.00" from="533" to="939"/>
    <trip id="930" depart="2790.00" from="533" to="1089"/>
    <trip id="932" depart="2796.00" from="-1568" to="-1089"/>
    <trip id="933" depart="2799.00" from="-937" to="-533"/>
    <trip id="934" depart="2802.00" from="-1568" to="-533"/>
    <trip id="935" depart="2805.00" from="533" to="939"/>
    <trip id="939" depart="2817.00" from="-1089" to="-937"/>
    <trip id="941" depart="2823.00" from="937" to="1568"/>
    <trip id="945" depart="2835.00" from="-1089" to="-533"/>
    <trip id="946" depart="2838.00" from="533" to="1568"/>
    <trip id="948" depart="2844.00" from="-939" to="1089"/>
    <trip id="952" depart="2856.00" from="-939" to="1568"/>
    <trip id="955" depart="2865.00" from="-939" to="1568"/>
    <trip id="956" depart="2868.00" from="-1568" to="-937"/>
    <trip id="960" depart="2880.00" from="533" to="1089"/>
    <trip id="961" depart="2883.00" from="-939" to="1089"/>
    <trip id="963" depart="2889.00" from="533" to="937"/>
    <trip id="965" depart="2895.00" from="533" to="1568"/>
    <trip id="966" depart="2898.00" from="-1089" to="-937"/>
    <trip id="967" depart="2901.00" from="-1089" to="939"/>
    <trip id="971" depart="2913.00" from="533" to="939"/>
    <trip id="976" depart="2928.00" from="1089" to="1089"/>
    <trip id="979" depart="2937.00" from="-939" to="937"/>
    <trip id="980" depart="2940.00" from="-1568" to="-1089"/>
    <trip id="981" depart="2943.00" from="-1089" to="-937"/>
    <trip id="982" depart="2946.00" from="1089" to="1089"/>
    <trip id="983" depart="2949.00" from="-939" to="937"/>
    <trip id="984" depart="2952.00" from="-1568" to="-937"/>
    <trip id="985" depart="2955.00" from="-1568" to="939"/>
    <trip id="988" depart="2964.00" from="533" to="939"/>
    <trip id="989" depart="2967.00" from="-1089" to="-533"/>