<?xml version="1.0" encoding="UTF-8"?>

<!-- generated on 2025-03-14 13:28:38.235262 by randomTrips.py v1_22_0+0449-9311ec3459f
<configuration>
    <net-file value="random_grid_6.net.xml"/>
    <output-trip-file value="random_grid_6_light.trips.xml"/>
    <validate value="True"/>
    <period value="4.0"/>
</configuration>
-->

<!-- generated on 2025-03-14 13:28:38 by Eclipse SUMO duarouter Version v1_22_0+0449-9311ec3459f
<duarouterConfiguration xmlns:xsi="http://www.w3.org/2001/XMLSchema-instance" xsi:noNamespaceSchemaLocation="http://sumo.dlr.de/xsd/duarouterConfiguration.xsd">

    <input>
        <net-file value="random_grid_6.net.xml"/>
        <route-files value="random_grid_6_light.trips.xml"/>
    </input>

    <output>
        <output-file value="random_grid_6_light.trips.xml.tmp"/>
        <alternatives-output value="NUL"/>
        <write-trips value="true"/>
    </output>

    <time>
        <begin value="0.0"/>
        <end value="3600.0"/>
    </time>

    <report>
        <no-warnings value="true"/>
        <ignore-errors value="true"/>
        <no-step-log value="true"/>
    </report>

</duarouterConfiguration>
-->

<routes xmlns:xsi="http://www.w3.org/2001/XMLSchema-instance" xsi:noNamespaceSchemaLocation="http://sumo.dlr.de/xsd/routes_file.xsd">
    <trip id="0" depart="0.00" from="-315" to="-270"/>
    <trip id="1" depart="4.00" from="-305" to="-305"/>
    <trip id="2" depart="8.00" from="270" to="307"/>
    <trip id="4" depart="16.00" from="-307" to="-270"/>
    <trip id="6" depart="24.00" from="-1907" to="-305"/>
    <trip id="7" depart="28.00" from="-315" to="305"/>
    <trip id="10" depart="40.00" from="270" to="307"/>
    <trip id="11" depart="44.00" from="-307" to="-270"/>
    <trip id="12" depart="48.00" from="305" to="1907"/>
    <trip id="13" depart="52.00" from="-1907" to="-270"/>
    <trip id="14" depart="56.00" from="305" to="305"/>
    <trip id="15" depart="60.00" from="270" to="307"/>
    <trip id="17" depart="68.00" from="-307" to="305"/>
    <trip id="18" depart="72.00" from="270" to="305"/>
    <trip id="19" depart="76.00" from="305" to="305"/>
    <trip id="21" depart="84.00" from="-305" to="-305"/>
    <trip id="22" depart="88.00" from="-1907" to="-305"/>
    <trip id="23" depart="92.00" from="-1907" to="-305"/>
    <trip id="24" depart="96.00" from="-315" to="1907"/>
    <trip id="26" depart="104.00" from="-305" to="315"/>
    <trip id="27" depart="108.00" from="-315" to="305"/>
    <trip id="28" depart="112.00" from="-305" to="307"/>
    <trip id="30" depart="120.00" from="305" to="305"/>
    <trip id="31" depart="124.00" from="-315" to="307"/>
    <trip id="33" depart="132.00" from="-305" to="-270"/>
    <trip id="34" depart="136.00" from="-305" to="-305"/>
    <trip id="35" depart="140.00" from="-305" to="315"/>
    <trip id="37" depart="148.00" from="-315" to="1907"/>
    <trip id="38" depart="152.00" from="305" to="1907"/>
    <trip id="39" depart="156.00" from="-305" to="-305"/>
    <trip id="43" depart="172.00" from="305" to="305"/>
    <trip id="44" depart="176.00" from="-1907" to="-270"/>
    <trip id="46" depart="184.00" from="270" to="1907"/>
    <trip id="48" depart="192.00" from="305" to="305"/>
    <trip id="50" depart="200.00" from="-1907" to="307"/>
    <trip id="51" depart="204.00" from="270" to="305"/>
    <trip id="54" depart="216.00" from="-307" to="315"/>
    <trip id="59" depart="236.00" from="-315" to="-270"/>
    <trip id="60" depart="240.00" from="270" to="305"/>
    <trip id="61" depart="244.00" from="270" to="305"/>
    <trip id="62" depart="248.00" from="-1907" to="-305"/>
    <trip id="63" depart="252.00" from="-1907" to="315"/>
    <trip id="65" depart="260.00" from="-305" to="-270"/>
    <trip id="68" depart="272.00" from="-1907" to="307"/>
    <trip id="70" depart="280.00" from="-307" to="305"/>
    <trip id="71" depart="284.00" from="-305" to="315"/>
    <trip id="73" depart="292.00" from="-315" to="307"/>
    <trip id="74" depart="296.00" from="-305" to="-305"/>
    <trip id="75" depart="300.00" from="305" to="305"/>
    <trip id="76" depart="304.00" from="-307" to="305"/>
    <trip id="77" depart="308.00" from="-1907" to="-305"/>
    <trip id="78" depart="312.00" from="-307" to="305"/>
    <trip id="79" depart="316.00" from="-305" to="-305"/>
    <trip id="81" depart="324.00" from="-305" to="315"/>
    <trip id="83" depart="332.00" from="-305" to="307"/>
    <trip id="84" depart="336.00" from="-305" to="-270"/>
    <trip id="85" depart="340.00" from="305" to="305"/>
    <trip id="89" depart="356.00" from="-307" to="1907"/>
    <trip id="90" depart="360.00" from="270" to="307"/>
    <trip id="92" depart="368.00" from="-307" to="1907"/>
    <trip id="96" depart="384.00" from="-305" to="315"/>
    <trip id="97" depart="388.00" from="-307" to="315"/>
    <trip id="98" depart="392.00" from="-315" to="-270"/>
    <trip id="103" depart="412.00" from="-307" to="-270"/>
    <trip id="104" depart="416.00" from="-307" to="315"/>
    <trip id="105" depart="420.00" from="-305" to="307"/>
    <trip id="106" depart="424.00" from="-307" to="1907"/>
    <trip id="108" depart="432.00" from="-315" to="307"/>
    <trip id="109" depart="436.00" from="-1907" to="-305"/>
    <trip id="110" depart="440.00" from="305" to="305"/>
    <trip id="111" depart="444.00" from="-315" to="307"/>
    <trip id="114" depart="456.00" from="-1907" to="315"/>
    <trip id="115" depart="460.00" from="-1907" to="-305"/>
    <trip id="116" depart="464.00" from="-315" to="307"/>
    <trip id="117" depart="468.00" from="-305" to="-270"/>
    <trip id="119" depart="476.00" from="-315" to="305"/>
    <trip id="120" depart="480.00" from="-307" to="305"/>
    <trip id="122" depart="488.00" from="-305" to="307"/>
    <trip id="125" depart="500.00" from="-305" to="307"/>
    <trip id="128" depart="512.00" from="-1907" to="-305"/>
    <trip id="129" depart="516.00" from="-305" to="315"/>
    <trip id="131" depart="524.00" from="-307" to="-270"/>
    <trip id="134" depart="536.00" from="-315" to="-270"/>
    <trip id="137" depart="548.00" from="-1907" to="-270"/>
    <trip id="142" depart="568.00" from="-307" to="315"/>
    <trip id="145" depart="580.00" from="-1907" to="307"/>
    <trip id="147" depart="588.00" from="270" to="305"/>
    <trip id="148" depart="592.00" from="-307" to="-270"/>
    <trip id="149" depart="596.00" from="-1907" to="315"/>
    <trip id="150" depart="600.00" from="305" to="305"/>
    <trip id="151" depart="604.00" from="305" to="305"/>
    <trip id="152" depart="608.00" from="-1907" to="-270"/>
    <trip id="153" depart="612.00" from="-305" to="315"/>
    <trip id="154" depart="616.00" from="270" to="315"/>
    <trip id="156" depart="624.00" from="-305" to="-270"/>
    <trip id="157" depart="628.00" from="270" to="315"/>
    <trip id="158" depart="632.00" from="-307" to="305"/>
    <trip id="159" depart="636.00" from="-1907" to="315"/>
    <trip id="161" depart="644.00" from="270" to="315"/>
    <trip id="162" depart="648.00" from="-1907" to="307"/>
    <trip id="163" depart="652.00" from="-305" to="315"/>
    <trip id="164" depart="656.00" from="270" to="315"/>
    <trip id="168" depart="672.00" from="-305" to="307"/>
    <trip id="171" depart="684.00" from="-1907" to="-305"/>
    <trip id="172" depart="688.00" from="-305" to="315"/>
    <trip id="174" depart="696.00" from="-315" to="1907"/>
    <trip id="175" depart="700.00" from="305" to="305"/>
    <trip id="181" depart="724.00" from="-315" to="305"/>
    <trip id="182" depart="728.00" from="-307" to="305"/>
    <trip id="183" depart="732.00" from="-305" to="307"/>
    <trip id="184" depart="736.00" from="-1907" to="315"/>
    <trip id="185" depart="740.00" from="-315" to="307"/>
    <trip id="186" depart="744.00" from="270" to="307"/>
    <trip id="187" depart="748.00" from="-307" to="-270"/>
    <trip id="189" depart="756.00" from="-305" to="315"/>
    <trip id="195" depart="780.00" from="305" to="305"/>
    <trip id="197" depart="788.00" from="-1907" to="-305"/>
    <trip id="198" depart="792.00" from="-307" to="305"/>
    <trip id="199" depart="796.00" from="-315" to="1907"/>
    <trip id="201" depart="804.00" from="-307" to="315"/>
    <trip id="204" depart="816.00" from="-315" to="1907"/>
    <trip id="205" depart="820.00" from="270" to="307"/>
    <trip id="207" depart="828.00" from="-305" to="-270"/>
    <trip id="210" depart="840.00" from="-307" to="305"/>
    <trip id="211" depart="844.00" from="-305" to="307"/>
    <trip id="213" depart="852.00" from="-315" to="-270"/>
    <trip id="214" depart="856.00" from="270" to="307"/>
    <trip id="216" depart="864.00" from="-305" to="315"/>
    <trip id="217" depart="868.00" from="-315" to="-270"/>
    <trip id="218" depart="872.00" from="-305" to="315"/>
    <trip id="220" depart="880.00" from="270" to="315"/>
    <trip id="222" depart="888.00" from="305" to="305"/>
    <trip id="223" depart="892.00" from="270" to="305"/>
    <trip id="224" depart="896.00" from="270" to="305"/>
    <trip id="228" depart="912.00" from="270" to="305"/>
    <trip id="230" depart="920.00" from="-1907" to="-305"/>
    <trip id="231" depart="924.00" from="-305" to="-305"/>
    <trip id="232" depart="928.00" from="-315" to="-270"/>
    <trip id="233" depart="932.00" from="-305" to="307"/>
    <trip id="235" depart="940.00" from="-307" to="305"/>
    <trip id="237" depart="948.00" from="-307" to="315"/>
    <trip id="238" depart="952.00" from="-315" to="307"/>
    <trip id="240" depart="960.00" from="-307" to="-270"/>
    <trip id="244" depart="976.00" from="-315" to="305"/>
    <trip id="245" depart="980.00" from="-305" to="-305"/>
    <trip id="246" depart="984.00" from="-307" to="-270"/>
    <trip id="248" depart="992.00" from="-307" to="-270"/>
    <trip id="249" depart="996.00" from="-307" to="-270"/>
    <trip id="250" depart="1000.00" from="-315" to="-270"/>
    <trip id="251" depart="1004.00" from="-307" to="305"/>
    <trip id="255" depart="1020.00" from="-305" to="-305"/>
    <trip id="256" depart="1024.00" from="270" to="1907"/>
    <trip id="257" depart="1028.00" from="270" to="307"/>
    <trip id="258" depart="1032.00" from="-305" to="-270"/>
    <trip id="260" depart="1040.00" from="305" to="1907"/>
    <trip id="261" depart="1044.00" from="-315" to="307"/>
    <trip id="262" depart="1048.00" from="-315" to="307"/>
    <trip id="264" depart="1056.00" from="-1907" to="-270"/>
    <trip id="265" depart="1060.00" from="-1907" to="307"/>
    <trip id="267" depart="1068.00" from="270" to="307"/>
    <trip id="270" depart="1080.00" from="270" to="315"/>
    <trip id="271" depart="1084.00" from="-1907" to="-270"/>
    <trip id="272" depart="1088.00" from="-305" to="307"/>
    <trip id="273" depart="1092.00" from="305" to="1907"/>
    <trip id="275" depart="1100.00" from="270" to="305"/>
    <trip id="276" depart="1104.00" from="-1907" to="307"/>
    <trip id="277" depart="1108.00" from="305" to="305"/>
    <trip id="278" depart="1112.00" from="-1907" to="315"/>
    <trip id="279" depart="1116.00" from="270" to="1907"/>
    <trip id="280" depart="1120.00" from="-307" to="1907"/>
    <trip id="281" depart="1124.00" from="-315" to="1907"/>
    <trip id="283" depart="1132.00" from="-1907" to="315"/>
    <trip id="284" depart="1136.00" from="-315" to="307"/>
    <trip id="285" depart="1140.00" from="270" to="1907"/>
    <trip id="286" depart="1144.00" from="270" to="315"/>
    <trip id="287" depart="1148.00" from="-305" to="307"/>
    <trip id="288" depart="1152.00" from="-315" to="1907"/>
    <trip id="290" depart="1160.00" from="-305" to="315"/>
    <trip id="293" depart="1172.00" from="-307" to="305"/>
    <trip id="294" depart="1176.00" from="-307" to="-270"/>
    <trip id="296" depart="1184.00" from="-305" to="307"/>
    <trip id="297" depart="1188.00" from="-307" to="315"/>
    <trip id="299" depart="1196.00" from="-1907" to="315"/>
    <trip id="300" depart="1200.00" from="-1907" to="307"/>
    <trip id="302" depart="1208.00" from="270" to="305"/>
    <trip id="304" depart="1216.00" from="-1907" to="-305"/>
    <trip id="306" depart="1224.00" from="-315" to="1907"/>
    <trip id="307" depart="1228.00" from="-315" to="1907"/>
    <trip id="310" depart="1240.00" from="-305" to="-270"/>
    <trip id="311" depart="1244.00" from="-305" to="-270"/>
    <trip id="312" depart="1248.00" from="-315" to="307"/>
    <trip id="313" depart="1252.00" from="-305" to="-305"/>
    <trip id="315" depart="1260.00" from="305" to="305"/>
    <trip id="316" depart="1264.00" from="-305" to="-270"/>
    <trip id="317" depart="1268.00" from="-305" to="-305"/>
    <trip id="318" depart="1272.00" from="-305" to="-270"/>
    <trip id="320" depart="1280.00" from="305" to="305"/>
    <trip id="322" depart="1288.00" from="305" to="1907"/>
    <trip id="323" depart="1292.00" from="305" to="305"/>
    <trip id="324" depart="1296.00" from="-307" to="1907"/>
    <trip id="325" depart="1300.00" from="-305" to="-270"/>
    <trip id="326" depart="1304.00" from="305" to="1907"/>
    <trip id="327" depart="1308.00" from="270" to="1907"/>
    <trip id="329" depart="1316.00" from="-1907" to="-270"/>
    <trip id="332" depart="1328.00" from="270" to="305"/>
    <trip id="334" depart="1336.00" from="-315" to="1907"/>
    <trip id="335" depart="1340.00" from="-307" to="315"/>
    <trip id="337" depart="1348.00" from="-315" to="305"/>
    <trip id="338" depart="1352.00" from="270" to="315"/>
    <trip id="339" depart="1356.00" from="-305" to="-305"/>
    <trip id="340" depart="1360.00" from="-315" to="-270"/>
    <trip id="341" depart="1364.00" from="-305" to="-270"/>
    <trip id="344" depart="1376.00" from="-305" to="307"/>
    <trip id="345" depart="1380.00" from="270" to="1907"/>
    <trip id="346" depart="1384.00" from="270" to="315"/>
    <trip id="347" depart="1388.00" from="270" to="305"/>
    <trip id="349" depart="1396.00" from="-307" to="305"/>
    <trip id="352" depart="1408.00" from="-1907" to="-305"/>
    <trip id="353" depart="1412.00" from="270" to="305"/>
    <trip id="354" depart="1416.00" from="-305" to="-270"/>
    <trip id="355" depart="1420.00" from="270" to="307"/>
    <trip id="356" depart="1424.00" from="305" to="305"/>
    <trip id="357" depart="1428.00" from="-307" to="-270"/>
    <trip id="359" depart="1436.00" from="-305" to="-305"/>
    <trip id="360" depart="1440.00" from="-1907" to="315"/>
    <trip id="361" depart="1444.00" from="305" to="305"/>
    <trip id="364" depart="1456.00" from="-1907" to="307"/>
    <trip id="365" depart="1460.00" from="-307" to="305"/>
    <trip id="367" depart="1468.00" from="-315" to="305"/>
    <trip id="368" depart="1472.00" from="-307" to="-270"/>
    <trip id="370" depart="1480.00" from="270" to="315"/>
    <trip id="371" depart="1484.00" from="-305" to="307"/>
    <trip id="372" depart="1488.00" from="-305" to="315"/>
    <trip id="373" depart="1492.00" from="270" to="305"/>
    <trip id="375" depart="1500.00" from="-305" to="315"/>
    <trip id="376" depart="1504.00" from="-307" to="305"/>
    <trip id="377" depart="1508.00" from="305" to="305"/>
    <trip id="378" depart="1512.00" from="-315" to="1907"/>
    <trip id="380" depart="1520.00" from="270" to="305"/>
    <trip id="384" depart="1536.00" from="-1907" to="315"/>
    <trip id="387" depart="1548.00" from="-315" to="-270"/>
    <trip id="389" depart="1556.00" from="-307" to="-270"/>
    <trip id="390" depart="1560.00" from="270" to="1907"/>
    <trip id="391" depart="1564.00" from="270" to="305"/>
    <trip id="392" depart="1568.00" from="-305" to="315"/>
    <trip id="394" depart="1576.00" from="-315" to="1907"/>
    <trip id="395" depart="1580.00" from="305" to="305"/>
    <trip id="397" depart="1588.00" from="-305" to="307"/>
    <trip id="398" depart="1592.00" from="-307" to="315"/>
    <trip id="399" depart="1596.00" from="-315" to="307"/>
    <trip id="400" depart="1600.00" from="-305" to="-305"/>
    <trip id="402" depart="1608.00" from="-307" to="-270"/>
    <trip id="403" depart="1612.00" from="-315" to="1907"/>
    <trip id="404" depart="1616.00" from="-315" to="305"/>
    <trip id="406" depart="1624.00" from="-305" to="307"/>
    <trip id="409" depart="1636.00" from="270" to="307"/>
    <trip id="410" depart="1640.00" from="270" to="1907"/>
    <trip id="411" depart="1644.00" from="-315" to="307"/>
    <trip id="412" depart="1648.00" from="305" to="1907"/>
    <trip id="415" depart="1660.00" from="305" to="1907"/>
    <trip id="416" depart="1664.00" from="-315" to="1907"/>
    <trip id="417" depart="1668.00" from="270" to="1907"/>
    <trip id="418" depart="1672.00" from="-315" to="-270"/>
    <trip id="419" depart="1676.00" from="-307" to="315"/>
    <trip id="424" depart="1696.00" from="270" to="307"/>
    <trip id="428" depart="1712.00" from="270" to="1907"/>
    <trip id="430" depart="1720.00" from="305" to="1907"/>
    <trip id="431" depart="1724.00" from="270" to="315"/>
    <trip id="432" depart="1728.00" from="-1907" to="307"/>
    <trip id="435" depart="1740.00" from="-315" to="307"/>
    <trip id="436" depart="1744.00" from="-305" to="-270"/>
    <trip id="437" depart="1748.00" from="305" to="305"/>
    <trip id="438" depart="1752.00" from="-305" to="315"/>
    <trip id="440" depart="1760.00" from="-305" to="-305"/>
    <trip id="441" depart="1764.00" from="-1907" to="307"/>
    <trip id="444" depart="1776.00" from="-307" to="305"/>
    <trip id="445" depart="1780.00" from="-315" to="1907"/>
    <trip id="446" depart="1784.00" from="-305" to="315"/>
    <trip id="449" depart="1796.00" from="-315" to="305"/>
    <trip id="451" depart="1804.00" from="305" to="305"/>
    <trip id="453" depart="1812.00" from="270" to="307"/>
    <trip id="455" depart="1820.00" from="-307" to="315"/>
    <trip id="456" depart="1824.00" from="-305" to="307"/>
    <trip id="457" depart="1828.00" from="-315" to="1907"/>
    <trip id="458" depart="1832.00" from="-315" to="305"/>
    <trip id="459" depart="1836.00" from="270" to="307"/>
    <trip id="463" depart="1852.00" from="-307" to="305"/>
    <trip id="465" depart="1860.00" from="-305" to="307"/>
    <trip id="466" depart="1864.00" from="-305" to="-270"/>
    <trip id="470" depart="1880.00" from="270" to="1907"/>
    <trip id="471" depart="1884.00" from="270" to="307"/>
    <trip id="472" depart="1888.00" from="-307" to="-270"/>
    <trip id="475" depart="1900.00" from="270" to="315"/>
    <trip id="480" depart="1920.00" from="270" to="305"/>
    <trip id="481" depart="1924.00" from="270" to="315"/>
    <trip id="482" depart="1928.00" from="-1907" to="-305"/>
    <trip id="483" depart="1932.00" from="-1907" to="315"/>
    <trip id="485" depart="1940.00" from="-305" to="-270"/>
    <trip id="486" depart="1944.00" from="270" to="315"/>
    <trip id="488" depart="1952.00" from="-1907" to="315"/>
    <trip id="490" depart="1960.00" from="-1907" to="315"/>
    <trip id="492" depart="1968.00" from="270" to="307"/>
    <trip id="493" depart="1972.00" from="305" to="1907"/>
    <trip id="495" depart="1980.00" from="-307" to="-270"/>
    <trip id="496" depart="1984.00" from="-307" to="1907"/>
    <trip id="498" depart="1992.00" from="-307" to="1907"/>
    <trip id="500" depart="2000.00" from="-1907" to="307"/>
    <trip id="502" depart="2008.00" from="-307" to="1907"/>
    <trip id="503" depart="2012.00" from="-305" to="-270"/>
    <trip id="504" depart="2016.00" from="305" to="1907"/>
    <trip id="505" depart="2020.00" from="-315" to="305"/>
    <trip id="506" depart="2024.00" from="-315" to="-270"/>
    <trip id="509" depart="2036.00" from="-1907" to="307"/>
    <trip id="510" depart="2040.00" from="-305" to="-305"/>
    <trip id="512" depart="2048.00" from="-1907" to="315"/>
    <trip id="513" depart="2052.00" from="-1907" to="315"/>
    <trip id="514" depart="2056.00" from="-1907" to="-270"/>
    <trip id="515" depart="2060.00" from="-305" to="-305"/>
    <trip id="516" depart="2064.00" from="-315" to="-270"/>
    <trip id="517" depart="2068.00" from="-1907" to="307"/>
    <trip id="518" depart="2072.00" from="-305" to="-305"/>
    <trip id="519" depart="2076.00" from="-305" to="-270"/>
    <trip id="520" depart="2080.00" from="270" to="305"/>
    <trip id="521" depart="2084.00" from="270" to="1907"/>
    <trip id="522" depart="2088.00" from="270" to="305"/>
    <trip id="525" depart="2100.00" from="270" to="315"/>
    <trip id="526" depart="2104.00" from="-315" to="1907"/>
    <trip id="528" depart="2112.00" from="-307" to="1907"/>
    <trip id="529" depart="2116.00" from="270" to="1907"/>
    <trip id="532" depart="2128.00" from="-1907" to="-305"/>
    <trip id="533" depart="2132.00" from="-315" to="305"/>
    <trip id="534" depart="2136.00" from="-305" to="315"/>
    <trip id="535" depart="2140.00" from="-315" to="1907"/>
    <trip id="536" depart="2144.00" from="-315" to="-270"/>
    <trip id="537" depart="2148.00" from="270" to="315"/>
    <trip id="538" depart="2152.00" from="-315" to="307"/>
    <trip id="541" depart="2164.00" from="-307" to="1907"/>
    <trip id="542" depart="2168.00" from="-307" to="-270"/>
    <trip id="543" depart="2172.00" from="-307" to="305"/>
    <trip id="544" depart="2176.00" from="-307" to="-270"/>
    <trip id="547" depart="2188.00" from="-1907" to="307"/>
    <trip id="548" depart="2192.00" from="270" to="305"/>
    <trip id="549" depart="2196.00" from="-315" to="305"/>
    <trip id="550" depart="2200.00" from="-305" to="-270"/>
    <trip id="551" depart="2204.00" from="-307" to="305"/>
    <trip id="552" depart="2208.00" from="270" to="315"/>
    <trip id="553" depart="2212.00" from="270" to="315"/>
    <trip id="554" depart="2216.00" from="-315" to="1907"/>
    <trip id="557" depart="2228.00" from="-1907" to="315"/>
    <trip id="559" depart="2236.00" from="-315" to="307"/>
    <trip id="561" depart="2244.00" from="270" to="305"/>
    <trip id="562" depart="2248.00" from="-315" to="-270"/>
    <trip id="564" depart="2256.00" from="-305" to="-305"/>
    <trip id="566" depart="2264.00" from="-307" to="-270"/>
    <trip id="567" depart="2268.00" from="305" to="305"/>
    <trip id="568" depart="2272.00" from="-307" to="-270"/>
    <trip id="569" depart="2276.00" from="-315" to="-270"/>
    <trip id="571" depart="2284.00" from="-307" to="1907"/>
    <trip id="573" depart="2292.00" from="270" to="305"/>
    <trip id="574" depart="2296.00" from="-1907" to="-270"/>
    <trip id="577" depart="2308.00" from="-315" to="1907"/>
    <trip id="581" depart="2324.00" from="270" to="1907"/>
    <trip id="583" depart="2332.00" from="-307" to="305"/>
    <trip id="584" depart="2336.00" from="-1907" to="-305"/>
    <trip id="585" depart="2340.00" from="-305" to="-270"/>
    <trip id="586" depart="2344.00" from="-305" to="-305"/>
    <trip id="587" depart="2348.00" from="-1907" to="307"/>
    <trip id="589" depart="2356.00" from="270" to="305"/>
    <trip id="591" depart="2364.00" from="-1907" to="315"/>
    <trip id="592" depart="2368.00" from="-1907" to="-270"/>
    <trip id="594" depart="2376.00" from="-315" to="305"/>
    <trip id="595" depart="2380.00" from="270" to="1907"/>
    <trip id="596" depart="2384.00" from="-1907" to="-270"/>
    <trip id="597" depart="2388.00" from="-305" to="307"/>
    <trip id="598" depart="2392.00" from="-315" to="307"/>
    <trip id="601" depart="2404.00" from="-315" to="305"/>
    <trip id="606" depart="2424.00" from="305" to="1907"/>
    <trip id="607" depart="2428.00" from="270" to="307"/>
    <trip id="609" depart="2436.00" from="-1907" to="-305"/>
    <trip id="610" depart="2440.00" from="-315" to="307"/>
    <trip id="612" depart="2448.00" from="270" to="1907"/>
    <trip id="613" depart="2452.00" from="270" to="307"/>
    <trip id="614" depart="2456.00" from="-307" to="315"/>
    <trip id="615" depart="2460.00" from="-315" to="305"/>
    <trip id="617" depart="2468.00" from="-315" to="-270"/>
    <trip id="619" depart="2476.00" from="-305" to="-305"/>
    <trip id="622" depart="2488.00" from="-1907" to="307"/>
    <trip id="623" depart="2492.00" from="-1907" to="315"/>
    <trip id="624" depart="2496.00" from="305" to="305"/>
    <trip id="625" depart="2500.00" from="-315" to="1907"/>
    <trip id="626" depart="2504.00" from="-315" to="307"/>
    <trip id="627" depart="2508.00" from="305" to="1907"/>
    <trip id="628" depart="2512.00" from="270" to="305"/>
    <trip id="630" depart="2520.00" from="-1907" to="-270"/>
    <trip id="631" depart="2524.00" from="-1907" to="315"/>
    <trip id="635" depart="2540.00" from="-307" to="305"/>
    <trip id="638" depart="2552.00" from="-307" to="305"/>
    <trip id="639" depart="2556.00" from="270" to="305"/>
    <trip id="640" depart="2560.00" from="-1907" to="-270"/>
    <trip id="642" depart="2568.00" from="270" to="305"/>
    <trip id="644" depart="2576.00" from="-307" to="305"/>
    <trip id="647" depart="2588.00" from="-307" to="305"/>
    <trip id="650" depart="2600.00" from="270" to="307"/>
    <trip id="651" depart="2604.00" from="270" to="307"/>
    <trip id="652" depart="2608.00" from="270" to="305"/>
    <trip id="653" depart="2612.00" from="-315" to="1907"/>
    <trip id="654" depart="2616.00" from="-307" to="1907"/>
    <trip id="655" depart="2620.00" from="-305" to="-305"/>
    <trip id="656" depart="2624.00" from="305" to="1907"/>
    <trip id="657" depart="2628.00" from="-305" to="-270"/>
    <trip id="658" depart="2632.00" from="-1907" to="315"/>
    <trip id="659" depart="2636.00" from="-1907" to="307"/>
    <trip id="663" depart="2652.00" from="-307" to="-270"/>
    <trip id="664" depart="2656.00" from="270" to="307"/>
    <trip id="666" depart="2664.00" from="-307" to="1907"/>
    <trip id="669" depart="2676.00" from="270" to="1907"/>
    <trip id="671" depart="2684.00" from="270" to="1907"/>
    <trip id="672" depart="2688.00" from="305" to="1907"/>
    <trip id="675" depart="2700.00" from="-307" to="305"/>
    <trip id="679" depart="2716.00" from="305" to="305"/>
    <trip id="680" depart="2720.00" from="-1907" to="315"/>
    <trip id="684" depart="2736.00" from="-307" to="315"/>
    <trip id="686" depart="2744.00" from="-307" to="-270"/>
    <trip id="688" depart="2752.00" from="-305" to="315"/>
    <trip id="689" depart="2756.00" from="-307" to="-270"/>
    <trip id="691" depart="2764.00" from="-315" to="307"/>
    <trip id="692" depart="2768.00" from="-1907" to="-305"/>
    <trip id="693" depart="2772.00" from="270" to="307"/>
    <trip id="694" depart="2776.00" from="-1907" to="307"/>
    <trip id="695" depart="2780.00" from="-307" to="-270"/>
    <trip id="696" depart="2784.00" from="-1907" to="-305"/>
    <trip id="697" depart="2788.00" from="305" to="305"/>
    <trip id="698" depart="2792.00" from="270" to="305"/>
    <trip id="699" depart="2796.00" from="-1907" to="-305"/>
    <trip id="700" depart="2800.00" from="-305" to="-270"/>
    <trip id="702" depart="2808.00" from="-307" to="-270"/>
    <trip id="703" depart="2812.00" from="305" to="305"/>
    <trip id="705" depart="2820.00" from="-305" to="-270"/>
    <trip id="706" depart="2824.00" from="-307" to="305"/>
    <trip id="708" depart="2832.00" from="-315" to="-270"/>
    <trip id="710" depart="2840.00" from="-315" to="305"/>
    <trip id="711" depart="2844.00" from="305" to="305"/>
    <trip id="712" depart="2848.00" from="-307" to="1907"/>
    <trip id="714" depart="2856.00" from="-305" to="-270"/>
    <trip id="715" depart="2860.00" from="270" to="1907"/>
    <trip id="716" depart="2864.00" from="270" to="305"/>
    <trip id="717" depart="2868.00" from="270" to="307"/>
    <trip id="718" depart="2872.00" from="-305" to="-270"/>
    <trip id="719" depart="2876.00" from="-315" to="307"/>
    <trip id="720" depart="2880.00" from="-305" to="307"/>
    <trip id="722" depart="2888.00" from="-315" to="307"/>
    <trip id="723" depart="2892.00" from="-1907" to="307"/>
    <trip id="725" depart="2900.00" from="-1907" to="-305"/>
    <trip id="726" depart="2904.00" from="-1907" to="315"/>
    <trip id="734" depart="2936.00" from="305" to="1907"/>
    <trip id="735" depart="2940.00" from="305" to="1907"/>
    <trip id="736" depart="2944.00" from="-307" to="315"/>
    <trip id="737" depart="2948.00" from="-315" to="307"/>
    <trip id="739" depart="2956.00" from="-315" to="307"/>
    <trip id="744" depart="2976.00" from="-307" to="-270"/>
    <trip id="745" depart="2980.00" from="305" to="1907"/>
    <trip id="750" depart="3000.00" from="270" to="315"/>
    <trip id="753" depart="3012.00" from="-1907" to="307"/>
    <trip id="754" depart="3016.00" from="-307" to="1907"/>
    <trip id="755" depart="3020.00" from="-315" to="305"/>
    <trip id="756" depart="3024.00" from="270" to="315"/>
    <trip id="758" depart="3032.00" from="-315" to="305"/>
    <trip id="759" depart="3036.00" from="-307" to="305"/>
    <trip id="760" depart="3040.00" from="-305" to="-270"/>
    <trip id="761" depart="3044.00" from="270" to="1907"/>
    <trip id="762" depart="3048.00" from="-307" to="305"/>
    <trip id="763" depart="3052.00" from="-305" to="-305"/>
    <trip id="764" depart="3056.00" from="-307" to="315"/>
    <trip id="765" depart="3060.00" from="-305" to="315"/>
    <trip id="766" depart="3064.00" from="-307" to="-270"/>
    <trip id="767" depart="3068.00" from="305" to="1907"/>
    <trip id="768" depart="3072.00" from="305" to="1907"/>
    <trip id="769" depart="3076.00" from="-1907" to="307"/>
    <trip id="771" depart="3084.00" from="-307" to="-270"/>
    <trip id="774" depart="3096.00" from="305" to="305"/>
    <trip id="775" depart="3100.00" from="270" to="305"/>
    <trip id="776" depart="3104.00" from="-1907" to="-305"/>
    <trip id="777" depart="3108.00" from="-1907" to="307"/>
    <trip id="780" depart="3120.00" from="-315" to="305"/>
    <trip id="781" depart="3124.00" from="-1907" to="-305"/>
    <trip id="783" depart="3132.00" from="-315" to="307"/>
    <trip id="785" depart="3140.00" from="305" to="305"/>
    <trip id="787" depart="3148.00" from="-307" to="315"/>