<?xml version="1.0" encoding="UTF-8"?>

<!-- generated on 2025-03-14 18:48:00.724967 by randomTrips.py v1_22_0+0449-9311ec3459f
<configuration>
    <net-file value="random_grid_9.net.xml"/>
    <output-trip-file value="random_grid_9_heavy.trips.xml"/>
    <fringe-factor value="100"/>
    <validate value="True"/>
    <period value="3.0"/>
    <random-depart value="True"/>
    <binomial value="10"/>
</configuration>
-->

<!-- generated on 2025-03-14 18:48:00 by Eclipse SUMO duarouter Version v1_22_0+0449-9311ec3459f
<duarouterConfiguration xmlns:xsi="http://www.w3.org/2001/XMLSchema-instance" xsi:noNamespaceSchemaLocation="http://sumo.dlr.de/xsd/duarouterConfiguration.xsd">

    <input>
        <net-file value="random_grid_9.net.xml"/>
        <route-files value="random_grid_9_heavy.trips.xml"/>
    </input>

    <output>
        <output-file value="random_grid_9_heavy.trips.xml.tmp"/>
        <alternatives-output value="NUL"/>
        <write-trips value="true"/>
    </output>

    <time>
        <begin value="0.0"/>
        <end value="3600.0"/>
    </time>

    <report>
        <no-warnings value="true"/>
        <ignore-errors value="true"/>
        <no-step-log value="true"/>
    </report>

</duarouterConfiguration>
-->

<routes xmlns:xsi="http://www.w3.org/2001/XMLSchema-instance" xsi:noNamespaceSchemaLocation="http://sumo.dlr.de/xsd/routes_file.xsd">
    <trip id="0" depart="0.00" from="-1085" to="-330"/>
    <trip id="3" depart="1.00" from="330" to="819"/>
    <trip id="4" depart="5.00" from="-1085" to="-330"/>
    <trip id="5" depart="9.00" from="330" to="819"/>
    <trip id="6" depart="11.00" from="-1085" to="-330"/>
    <trip id="8" depart="27.00" from="330" to="1085"/>
    <trip id="9" depart="27.00" from="-1085" to="819"/>
    <trip id="11" depart="32.00" from="-1085" to="-330"/>
    <trip id="12" depart="34.00" from="330" to="1085"/>
    <trip id="15" depart="39.00" from="330" to="819"/>
    <trip id="18" depart="46.00" from="-819" to="1085"/>
    <trip id="19" depart="46.00" from="-819" to="-330"/>
    <trip id="20" depart="47.00" from="-819" to="833"/>
    <trip id="21" depart="48.00" from="-1085" to="-330"/>
    <trip id="22" depart="49.00" from="-1085" to="819"/>
    <trip id="25" depart="58.00" from="-819" to="-330"/>
    <trip id="26" depart="63.00" from="-819" to="1085"/>
    <trip id="27" depart="82.00" from="330" to="819"/>
    <trip id="28" depart="90.00" from="-819" to="1085"/>
    <trip id="29" depart="90.00" from="330" to="1085"/>
    <trip id="30" depart="93.00" from="-819" to="1085"/>
    <trip id="33" depart="96.00" from="-1085" to="819"/>
    <trip id="34" depart="105.00" from="330" to="819"/>
    <trip id="35" depart="106.00" from="330" to="1085"/>
    <trip id="37" depart="109.00" from="-1085" to="-330"/>
    <trip id="39" depart="110.00" from="330" to="819"/>
    <trip id="40" depart="111.00" from="-1085" to="819"/>
    <trip id="42" depart="129.00" from="330" to="819"/>
    <trip id="43" depart="130.00" from="-1085" to="-330"/>
    <trip id="44" depart="132.00" from="-819" to="-330"/>
    <trip id="45" depart="133.00" from="330" to="1085"/>
    <trip id="46" depart="146.00" from="-819" to="1085"/>
    <trip id="48" depart="156.00" from="330" to="1085"/>
    <trip id="51" depart="163.00" from="-1085" to="-330"/>
    <trip id="53" depart="173.00" from="-819" to="-330"/>
    <trip id="56" depart="184.00" from="-1085" to="-330"/>
    <trip id="57" depart="186.00" from="-1085" to="-330"/>
    <trip id="58" depart="193.00" from="330" to="819"/>
    <trip id="59" depart="199.00" from="-819" to="1085"/>
    <trip id="60" depart="200.00" from="-819" to="-330"/>
    <trip id="61" depart="200.00" from="330" to="819"/>
    <trip id="64" depart="207.00" from="-1085" to="819"/>
    <trip id="66" depart="209.00" from="-819" to="-330"/>
    <trip id="69" depart="223.00" from="-819" to="-330"/>
    <trip id="70" depart="228.00" from="-1085" to="819"/>
    <trip id="72" depart="237.00" from="330" to="819"/>
    <trip id="74" depart="241.00" from="-819" to="-330"/>
    <trip id="75" depart="241.00" from="330" to="819"/>
    <trip id="76" depart="243.00" from="-819" to="1085"/>
    <trip id="77" depart="248.00" from="-1085" to="-330"/>
    <trip id="80" depart="258.00" from="-819" to="-330"/>
    <trip id="82" depart="265.00" from="-819" to="1085"/>
    <trip id="83" depart="265.00" from="330" to="819"/>
    <trip id="84" depart="266.00" from="-1085" to="819"/>
    <trip id="86" depart="273.00" from="330" to="819"/>
    <trip id="92" depart="285.00" from="-1085" to="-330"/>
    <trip id="94" depart="298.00" from="-1085" to="819"/>
    <trip id="95" depart="299.00" from="-819" to="1085"/>
    <trip id="96" depart="301.00" from="330" to="819"/>
    <trip id="97" depart="301.00" from="330" to="1085"/>
    <trip id="98" depart="301.00" from="-1085" to="819"/>
    <trip id="99" depart="311.00" from="-1085" to="819"/>
    <trip id="100" depart="312.00" from="-1085" to="819"/>
    <trip id="101" depart="317.00" from="330" to="1085"/>
    <trip id="102" depart="320.00" from="330" to="819"/>
    <trip id="103" depart="325.00" from="330" to="819"/>
    <trip id="105" depart="341.00" from="-1085" to="819"/>
    <trip id="108" depart="349.00" from="330" to="1085"/>
    <trip id="109" depart="352.00" from="-1085" to="819"/>
    <trip id="110" depart="354.00" from="330" to="1085"/>
    <trip id="111" depart="357.00" from="-819" to="1085"/>
    <trip id="112" depart="362.00" from="-1085" to="-330"/>
    <trip id="113" depart="364.00" from="-819" to="-330"/>
    <trip id="115" depart="373.00" from="330" to="1085"/>
    <trip id="117" depart="383.00" from="-1085" to="-330"/>
    <trip id="119" depart="390.00" from="-1085" to="-330"/>
    <trip id="122" depart="401.00" from="-1085" to="819"/>
    <trip id="123" depart="405.00" from="330" to="1085"/>
    <trip id="125" depart="407.00" from="-833" to="819"/>
    <trip id="126" depart="409.00" from="330" to="819"/>
    <trip id="127" depart="410.00" from="330" to="819"/>
    <trip id="128" depart="410.00" from="-819" to="-330"/>
    <trip id="129" depart="410.00" from="-819" to="1085"/>
    <trip id="131" depart="418.00" from="-1085" to="819"/>
    <trip id="132" depart="423.00" from="-819" to="1085"/>
    <trip id="133" depart="423.00" from="330" to="819"/>
    <trip id="134" depart="433.00" from="330" to="819"/>
    <trip id="135" depart="437.00" from="330" to="1085"/>
    <trip id="136" depart="441.00" from="-1085" to="819"/>
    <trip id="139" depart="444.00" from="-819" to="1085"/>
    <trip id="140" depart="445.00" from="-819" to="-330"/>
    <trip id="141" depart="445.00" from="330" to="1085"/>
    <trip id="143" depart="448.00" from="-819" to="-330"/>
    <trip id="147" depart="472.00" from="-1085" to="-330"/>
    <trip id="148" depart="473.00" from="330" to="1085"/>
    <trip id="149" depart="473.00" from="-1085" to="-330"/>
    <trip id="150" depart="476.00" from="330" to="1085"/>
    <trip id="151" depart="476.00" from="-819" to="1085"/>
    <trip id="152" depart="478.00" from="-819" to="1085"/>
    <trip id="153" depart="479.00" from="330" to="819"/>
    <trip id="154" depart="481.00" from="-819" to="1085"/>
    <trip id="155" depart="486.00" from="-819" to="1085"/>
    <trip id="156" depart="491.00" from="-1085" to="-330"/>
    <trip id="157" depart="493.00" from="330" to="1085"/>
    <trip id="158" depart="496.00" from="330" to="1085"/>
    <trip id="159" depart="503.00" from="-1085" to="-330"/>
    <trip id="160" depart="507.00" from="330" to="1085"/>
    <trip id="161" depart="510.00" from="-1085" to="-330"/>
    <trip id="162" depart="510.00" from="-1085" to="819"/>
    <trip id="163" depart="517.00" from="330" to="819"/>
    <trip id="164" depart="527.00" from="-819" to="-330"/>
    <trip id="165" depart="529.00" from="-1085" to="-330"/>
    <trip id="167" depart="539.00" from="330" to="819"/>
    <trip id="169" depart="541.00" from="-819" to="-330"/>
    <trip id="170" depart="553.00" from="330" to="819"/>
    <trip id="171" depart="556.00" from="-819" to="1085"/>
    <trip id="172" depart="562.00" from="-1085" to="-330"/>
    <trip id="173" depart="567.00" from="-819" to="1085"/>
    <trip id="175" depart="574.00" from="-1085" to="-330"/>
    <trip id="178" depart="587.00" from="-1085" to="819"/>
    <trip id="179" depart="587.00" from="330" to="1085"/>
    <trip id="181" depart="594.00" from="330" to="819"/>
    <trip id="183" depart="603.00" from="330" to="1085"/>
    <trip id="185" depart="615.00" from="-1085" to="-330"/>
    <trip id="186" depart="624.00" from="330" to="819"/>
    <trip id="187" depart="626.00" from="330" to="1085"/>
    <trip id="188" depart="635.00" from="-1085" to="-330"/>
    <trip id="189" depart="637.00" from="-1085" to="-330"/>
    <trip id="190" depart="638.00" from="-1085" to="-330"/>
    <trip id="192" depart="642.00" from="-1085" to="-330"/>
    <trip id="193" depart="645.00" from="330" to="1085"/>
    <trip id="195" depart="652.00" from="-1085" to="-330"/>
    <trip id="197" depart="657.00" from="330" to="1085"/>
    <trip id="199" depart="671.00" from="-819" to="1085"/>
    <trip id="202" depart="677.00" from="330" to="1085"/>
    <trip id="203" depart="680.00" from="330" to="1085"/>
    <trip id="205" depart="681.00" from="330" to="819"/>
    <trip id="207" depart="682.00" from="-1085" to="819"/>
    <trip id="208" depart="688.00" from="-1085" to="-330"/>
    <trip id="209" depart="688.00" from="330" to="819"/>
    <trip id="212" depart="699.00" from="-1085" to="-330"/>
    <trip id="213" depart="700.00" from="-1085" to="-330"/>
    <trip id="214" depart="701.00" from="-1085" to="-330"/>
    <trip id="215" depart="701.00" from="330" to="819"/>
    <trip id="216" depart="701.00" from="330" to="1085"/>
    <trip id="217" depart="712.00" from="-1085" to="819"/>
    <trip id="218" depart="715.00" from="330" to="819"/>
    <trip id="219" depart="716.00" from="330" to="819"/>
    <trip id="220" depart="718.00" from="330" to="1085"/>
    <trip id="221" depart="721.00" from="-1085" to="-330"/>
    <trip id="222" depart="726.00" from="-1085" to="819"/>
    <trip id="223" depart="728.00" from="-1085" to="-330"/>
    <trip id="224" depart="730.00" from="330" to="819"/>
    <trip id="229" depart="749.00" from="330" to="1085"/>
    <trip id="230" depart="752.00" from="-1085" to="819"/>
    <trip id="233" depart="759.00" from="-819" to="-330"/>
    <trip id="235" depart="774.00" from="330" to="1085"/>
    <trip id="236" depart="778.00" from="-819" to="1085"/>
    <trip id="237" depart="780.00" from="-819" to="1085"/>
    <trip id="238" depart="783.00" from="-1085" to="819"/>
    <trip id="239" depart="787.00" from="-819" to="-330"/>
    <trip id="241" depart="791.00" from="-819" to="-330"/>
    <trip id="246" depart="821.00" from="-819" to="1085"/>
    <trip id="247" depart="825.00" from="-1085" to="-330"/>
    <trip id="248" depart="827.00" from="330" to="819"/>
    <trip id="249" depart="827.00" from="330" to="819"/>
    <trip id="250" depart="830.00" from="-819" to="-330"/>
    <trip id="253" depart="839.00" from="330" to="1085"/>
    <trip id="254" depart="840.00" from="-819" to="-330"/>
    <trip id="255" depart="841.00" from="330" to="1085"/>
    <trip id="256" depart="841.00" from="330" to="819"/>
    <trip id="258" depart="845.00" from="-1085" to="819"/>
    <trip id="259" depart="846.00" from="-819" to="-330"/>
    <trip id="261" depart="858.00" from="-819" to="1085"/>
    <trip id="262" depart="862.00" from="330" to="1085"/>
    <trip id="266" depart="870.00" from="-819" to="-330"/>
    <trip id="268" depart="875.00" from="330" to="819"/>
    <trip id="269" depart="878.00" from="-1085" to="819"/>
    <trip id="271" depart="879.00" from="330" to="819"/>
    <trip id="273" depart="885.00" from="-1085" to="-330"/>
    <trip id="275" depart="892.00" from="-1085" to="-330"/>
    <trip id="276" depart="897.00" from="-1085" to="819"/>
    <trip id="277" depart="900.00" from="-819" to="1085"/>
    <trip id="280" depart="909.00" from="330" to="819"/>
    <trip id="281" depart="914.00" from="-1085" to="-330"/>
    <trip id="284" depart="920.00" from="330" to="819"/>
    <trip id="286" depart="923.00" from="-819" to="-330"/>
    <trip id="287" depart="927.00" from="-819" to="1085"/>
    <trip id="289" depart="940.00" from="-819" to="-330"/>
    <trip id="290" depart="944.00" from="-1085" to="819"/>
    <trip id="291" depart="946.00" from="330" to="819"/>
    <trip id="293" depart="956.00" from="330" to="819"/>
    <trip id="295" depart="965.00" from="330" to="1085"/>
    <trip id="296" depart="970.00" from="-1085" to="-330"/>
    <trip id="297" depart="979.00" from="330" to="819"/>
    <trip id="301" depart="991.00" from="330" to="819"/>
    <trip id="303" depart="995.00" from="330" to="1085"/>
    <trip id="304" depart="996.00" from="-1085" to="-330"/>
    <trip id="305" depart="997.00" from="-819" to="1085"/>
    <trip id="306" depart="1000.00" from="330" to="819"/>
    <trip id="307" depart="1005.00" from="-819" to="-330"/>
    <trip id="308" depart="1013.00" from="-819" to="1085"/>
    <trip id="309" depart="1014.00" from="-819" to="1085"/>
    <trip id="310" depart="1015.00" from="-1085" to="-330"/>
    <trip id="312" depart="1018.00" from="330" to="819"/>
    <trip id="315" depart="1028.00" from="-819" to="1085"/>
    <trip id="316" depart="1029.00" from="330" to="1085"/>
    <trip id="318" depart="1032.00" from="-1085" to="819"/>
    <trip id="322" depart="1049.00" from="-819" to="-330"/>
    <trip id="323" depart="1050.00" from="-1085" to="-330"/>
    <trip id="324" depart="1051.00" from="-819" to="1085"/>
    <trip id="325" depart="1051.00" from="330" to="819"/>
    <trip id="326" depart="1052.00" from="-819" to="-330"/>
    <trip id="327" depart="1053.00" from="330" to="1085"/>
    <trip id="328" depart="1062.00" from="-1085" to="819"/>
    <trip id="330" depart="1068.00" from="-1085" to="-330"/>
    <trip id="331" depart="1070.00" from="330" to="1085"/>
    <trip id="332" depart="1078.00" from="330" to="1085"/>
    <trip id="336" depart="1092.00" from="-819" to="-330"/>
    <trip id="337" depart="1095.00" from="-819" to="-330"/>
    <trip id="340" depart="1101.00" from="330" to="1085"/>
    <trip id="342" depart="1118.00" from="330" to="1085"/>
    <trip id="344" depart="1124.00" from="-1085" to="-330"/>
    <trip id="345" depart="1132.00" from="-819" to="-330"/>
    <trip id="346" depart="1141.00" from="-1085" to="-330"/>
    <trip id="349" depart="1153.00" from="-819" to="-330"/>
    <trip id="353" depart="1164.00" from="-1085" to="819"/>
    <trip id="356" depart="1189.00" from="330" to="819"/>
    <trip id="357" depart="1191.00" from="330" to="1085"/>
    <trip id="359" depart="1197.00" from="-1085" to="819"/>
    <trip id="361" depart="1200.00" from="-1085" to="-330"/>
    <trip id="363" depart="1207.00" from="-1085" to="-330"/>
    <trip id="364" depart="1207.00" from="330" to="1085"/>
    <trip id="365" depart="1208.00" from="-819" to="-330"/>
    <trip id="366" depart="1210.00" from="-1085" to="-330"/>
    <trip id="367" depart="1214.00" from="-819" to="-330"/>
    <trip id="368" depart="1218.00" from="-1085" to="-330"/>
    <trip id="370" depart="1225.00" from="330" to="1085"/>
    <trip id="371" depart="1226.00" from="330" to="1085"/>
    <trip id="372" depart="1228.00" from="-819" to="1085"/>
    <trip id="373" depart="1232.00" from="-1085" to="-330"/>
    <trip id="374" depart="1232.00" from="-1085" to="-330"/>
    <trip id="375" depart="1235.00" from="-819" to="-330"/>
    <trip id="376" depart="1236.00" from="330" to="1085"/>
    <trip id="377" depart="1246.00" from="330" to="1085"/>
    <trip id="378" depart="1247.00" from="-1085" to="-330"/>
    <trip id="379" depart="1249.00" from="-1085" to="-330"/>
    <trip id="381" depart="1251.00" from="-1085" to="819"/>
    <trip id="382" depart="1254.00" from="330" to="819"/>
    <trip id="384" depart="1259.00" from="-1085" to="819"/>
    <trip id="386" depart="1262.00" from="330" to="819"/>
    <trip id="387" depart="1264.00" from="-1085" to="-330"/>
    <trip id="388" depart="1272.00" from="-1085" to="819"/>
    <trip id="389" depart="1275.00" from="-819" to="1085"/>
    <trip id="391" depart="1288.00" from="330" to="819"/>
    <trip id="392" depart="1289.00" from="-819" to="-330"/>
    <trip id="394" depart="1293.00" from="-819" to="1085"/>
    <trip id="398" depart="1301.00" from="-1085" to="819"/>
    <trip id="400" depart="1309.00" from="-819" to="1085"/>
    <trip id="401" depart="1310.00" from="-1085" to="-330"/>
    <trip id="402" depart="1313.00" from="330" to="1085"/>
    <trip id="404" depart="1318.00" from="330" to="819"/>
    <trip id="406" depart="1328.00" from="-1085" to="819"/>
    <trip id="407" depart="1329.00" from="-1085" to="819"/>
    <trip id="411" depart="1344.00" from="-1085" to="819"/>
    <trip id="412" depart="1345.00" from="-819" to="-330"/>
    <trip id="413" depart="1349.00" from="-1085" to="-330"/>
    <trip id="415" depart="1357.00" from="-1085" to="-330"/>
    <trip id="416" depart="1364.00" from="330" to="819"/>
    <trip id="417" depart="1366.00" from="330" to="819"/>
    <trip id="418" depart="1375.00" from="-1085" to="-330"/>
    <trip id="420" depart="1379.00" from="-819" to="-330"/>
    <trip id="421" depart="1382.00" from="-819" to="1085"/>
    <trip id="422" depart="1383.00" from="-819" to="-330"/>
    <trip id="424" depart="1395.00" from="-1085" to="819"/>
    <trip id="425" depart="1396.00" from="-1085" to="819"/>
    <trip id="426" depart="1397.00" from="-819" to="-330"/>
    <trip id="427" depart="1402.00" from="-1085" to="-330"/>
    <trip id="429" depart="1407.00" from="330" to="1085"/>
    <trip id="430" depart="1413.00" from="-819" to="-330"/>
    <trip id="432" depart="1415.00" from="-819" to="1085"/>
    <trip id="433" depart="1415.00" from="330" to="819"/>
    <trip id="434" depart="1419.00" from="330" to="1085"/>
    <trip id="435" depart="1420.00" from="330" to="1085"/>
    <trip id="436" depart="1422.00" from="-819" to="1085"/>
    <trip id="437" depart="1425.00" from="330" to="819"/>
    <trip id="438" depart="1433.00" from="-1085" to="819"/>
    <trip id="439" depart="1433.00" from="330" to="1085"/>
    <trip id="440" depart="1435.00" from="-819" to="-330"/>
    <trip id="442" depart="1438.00" from="-1085" to="819"/>
    <trip id="443" depart="1442.00" from="-819" to="-330"/>
    <trip id="445" depart="1451.00" from="-819" to="1085"/>
    <trip id="447" depart="1463.00" from="-819" to="-330"/>
    <trip id="448" depart="1465.00" from="-819" to="1085"/>
    <trip id="449" depart="1467.00" from="-1085" to="-330"/>
    <trip id="450" depart="1467.00" from="-1085" to="-330"/>
    <trip id="454" depart="1484.00" from="-819" to="1085"/>
    <trip id="455" depart="1489.00" from="-833" to="819"/>
    <trip id="456" depart="1491.00" from="-1085" to="819"/>
    <trip id="457" depart="1492.00" from="330" to="819"/>
    <trip id="458" depart="1493.00" from="330" to="819"/>
    <trip id="459" depart="1494.00" from="-1085" to="-330"/>
    <trip id="460" depart="1498.00" from="330" to="819"/>
    <trip id="461" depart="1500.00" from="330" to="819"/>
    <trip id="462" depart="1501.00" from="-819" to="-330"/>
    <trip id="463" depart="1502.00" from="-1085" to="-330"/>
    <trip id="464" depart="1504.00" from="330" to="1085"/>
    <trip id="465" depart="1505.00" from="-819" to="1085"/>
    <trip id="467" depart="1510.00" from="330" to="819"/>
    <trip id="468" depart="1511.00" from="-819" to="1085"/>
    <trip id="469" depart="1512.00" from="330" to="1085"/>
    <trip id="470" depart="1516.00" from="-1085" to="819"/>
    <trip id="471" depart="1522.00" from="-819" to="-330"/>
    <trip id="472" depart="1523.00" from="-819" to="-330"/>
    <trip id="473" depart="1528.00" from="-1085" to="819"/>
    <trip id="474" depart="1529.00" from="-1085" to="-330"/>
    <trip id="475" depart="1529.00" from="-819" to="1085"/>
    <trip id="477" depart="1540.00" from="-1085" to="819"/>
    <trip id="478" depart="1544.00" from="-819" to="1085"/>
    <trip id="479" depart="1545.00" from="330" to="1085"/>
    <trip id="480" depart="1552.00" from="330" to="1085"/>
    <trip id="482" depart="1554.00" from="330" to="819"/>
    <trip id="483" depart="1557.00" from="330" to="819"/>
    <trip id="484" depart="1563.00" from="-1085" to="819"/>
    <trip id="485" depart="1563.00" from="330" to="1085"/>
    <trip id="486" depart="1564.00" from="-1085" to="-330"/>
    <trip id="487" depart="1567.00" from="330" to="1085"/>
    <trip id="488" depart="1568.00" from="330" to="1085"/>
    <trip id="490" depart="1570.00" from="330" to="819"/>
    <trip id="491" depart="1572.00" from="330" to="1085"/>
    <trip id="492" depart="1573.00" from="-819" to="-330"/>
    <trip id="493" depart="1574.00" from="330" to="1085"/>
    <trip id="494" depart="1574.00" from="330" to="819"/>
    <trip id="499" depart="1596.00" from="-1085" to="-330"/>
    <trip id="500" depart="1596.00" from="330" to="1085"/>
    <trip id="501" depart="1597.00" from="-1085" to="-330"/>
    <trip id="502" depart="1599.00" from="-1085" to="819"/>
    <trip id="503" depart="1600.00" from="-1085" to="819"/>
    <trip id="505" depart="1601.00" from="330" to="1085"/>
    <trip id="507" depart="1606.00" from="-819" to="1085"/>
    <trip id="508" depart="1609.00" from="-1085" to="819"/>
    <trip id="509" depart="1609.00" from="330" to="1085"/>
    <trip id="510" depart="1613.00" from="-819" to="-330"/>
    <trip id="512" depart="1622.00" from="-1085" to="-330"/>
    <trip id="514" depart="1631.00" from="-819" to="1085"/>
    <trip id="517" depart="1651.00" from="-1085" to="819"/>
    <trip id="518" depart="1652.00" from="-1085" to="819"/>
    <trip id="519" depart="1655.00" from="-819" to="1085"/>
    <trip id="520" depart="1665.00" from="-819" to="-330"/>
    <trip id="522" depart="1669.00" from="-1085" to="-330"/>
    <trip id="523" depart="1669.00" from="-819" to="1085"/>
    <trip id="524" depart="1672.00" from="330" to="819"/>
    <trip id="525" depart="1675.00" from="-819" to="1085"/>
    <trip id="526" depart="1677.00" from="-819" to="1085"/>
    <trip id="527" depart="1685.00" from="330" to="1085"/>
    <trip id="529" depart="1693.00" from="330" to="819"/>
    <trip id="531" depart="1701.00" from="-1085" to="819"/>
    <trip id="532" depart="1702.00" from="-819" to="-330"/>
    <trip id="534" depart="1712.00" from="-819" to="-330"/>
    <trip id="535" depart="1712.00" from="-819" to="1085"/>
    <trip id="536" depart="1713.00" from="-1085" to="819"/>
    <trip id="540" depart="1729.00" from="-1085" to="819"/>
    <trip id="541" depart="1729.00" from="-819" to="-330"/>
    <trip id="542" depart="1736.00" from="330" to="1085"/>
    <trip id="543" depart="1737.00" from="330" to="1085"/>
    <trip id="544" depart="1741.00" from="-819" to="-330"/>
    <trip id="546" depart="1747.00" from="330" to="1085"/>
    <trip id="547" depart="1750.00" from="330" to="1085"/>
    <trip id="549" depart="1756.00" from="-819" to="1085"/>
    <trip id="550" depart="1757.00" from="330" to="819"/>
    <trip id="551" depart="1766.00" from="330" to="1085"/>
    <trip id="553" depart="1779.00" from="330" to="1085"/>
    <trip id="555" depart="1782.00" from="330" to="1085"/>
    <trip id="559" depart="1796.00" from="330" to="819"/>
    <trip id="561" depart="1808.00" from="-819" to="1085"/>
    <trip id="562" depart="1808.00" from="-1085" to="-330"/>
    <trip id="563" depart="1808.00" from="-819" to="1085"/>
    <trip id="565" depart="1811.00" from="-1085" to="-330"/>
    <trip id="566" depart="1812.00" from="-819" to="-330"/>
    <trip id="568" depart="1818.00" from="330" to="1085"/>
    <trip id="569" depart="1818.00" from="-1085" to="819"/>
    <trip id="570" depart="1821.00" from="-1085" to="-330"/>
    <trip id="572" depart="1822.00" from="-819" to="-330"/>
    <trip id="573" depart="1823.00" from="-819" to="1085"/>
    <trip id="574" depart="1823.00" from="330" to="819"/>
    <trip id="575" depart="1829.00" from="-819" to="-330"/>
    <trip id="576" depart="1829.00" from="-1085" to="819"/>
    <trip id="577" depart="1833.00" from="-1085" to="-330"/>
    <trip id="578" depart="1834.00" from="-833" to="819"/>
    <trip id="579" depart="1834.00" from="-819" to="-330"/>
    <trip id="581" depart="1835.00" from="330" to="819"/>
    <trip id="585" depart="1848.00" from="330" to="819"/>
    <trip id="586" depart="1850.00" from="330" to="1085"/>
    <trip id="587" depart="1855.00" from="-1085" to="-330"/>
    <trip id="588" depart="1855.00" from="330" to="1085"/>
    <trip id="591" depart="1858.00" from="330" to="1085"/>
    <trip id="593" depart="1861.00" from="330" to="819"/>
    <trip id="595" depart="1864.00" from="330" to="819"/>
    <trip id="596" depart="1871.00" from="-1085" to="819"/>
    <trip id="598" depart="1875.00" from="-819" to="1085"/>
    <trip id="599" depart="1877.00" from="-1085" to="819"/>
    <trip id="602" depart="1880.00" from="330" to="1085"/>
    <trip id="603" depart="1883.00" from="-1085" to="-330"/>
    <trip id="606" depart="1892.00" from="330" to="1085"/>
    <trip id="607" depart="1892.00" from="330" to="819"/>
    <trip id="608" depart="1892.00" from="-1085" to="-330"/>
    <trip id="611" depart="1897.00" from="-819" to="1085"/>
    <trip id="612" depart="1903.00" from="-819" to="-330"/>
    <trip id="613" depart="1911.00" from="-819" to="1085"/>
    <trip id="614" depart="1916.00" from="-1085" to="-330"/>
    <trip id="615" depart="1917.00" from="-1085" to="819"/>
    <trip id="616" depart="1919.00" from="-819" to="-330"/>
    <trip id="617" depart="1920.00" from="330" to="1085"/>
    <trip id="619" depart="1927.00" from="-819" to="1085"/>
    <trip id="620" depart="1928.00" from="330" to="1085"/>
    <trip id="621" depart="1933.00" from="-819" to="1085"/>
    <trip id="625" depart="1939.00" from="-819" to="-330"/>
    <trip id="626" depart="1940.00" from="-1085" to="819"/>
    <trip id="627" depart="1942.00" from="330" to="1085"/>
    <trip id="628" depart="1943.00" from="-1085" to="819"/>
    <trip id="629" depart="1944.00" from="-819" to="-330"/>
    <trip id="632" depart="1948.00" from="330" to="819"/>
    <trip id="634" depart="1952.00" from="-1085" to="-330"/>
    <trip id="635" depart="1952.00" from="-819" to="1085"/>
    <trip id="636" depart="1954.00" from="-1085" to="819"/>
    <trip id="637" depart="1955.00" from="-1085" to="819"/>
    <trip id="639" depart="1962.00" from="-819" to="-330"/>
    <trip id="641" depart="1974.00" from="-1085" to="819"/>
    <trip id="642" depart="1975.00" from="-819" to="1085"/>
    <trip id="645" depart="1982.00" from="-1085" to="819"/>
    <trip id="646" depart="1983.00" from="-1085" to="819"/>
    <trip id="647" depart="1983.00" from="330" to="1085"/>
    <trip id="649" depart="1985.00" from="-819" to="1085"/>
    <trip id="650" depart="1991.00" from="-819" to="-330"/>
    <trip id="651" depart="1996.00" from="-1085" to="819"/>
    <trip id="652" depart="1996.00" from="-819" to="-330"/>
    <trip id="654" depart="2003.00" from="330" to="1085"/>
    <trip id="655" depart="2004.00" from="-1085" to="819"/>
    <trip id="656" depart="2004.00" from="-819" to="-330"/>
    <trip id="659" depart="2010.00" from="-819" to="1085"/>
    <trip id="661" depart="2017.00" from="330" to="819"/>
    <trip id="664" depart="2032.00" from="330" to="1085"/>
    <trip id="667" depart="2038.00" from="330" to="819"/>
    <trip id="669" depart="2041.00" from="330" to="1085"/>
    <trip id="670" depart="2042.00" from="-1085" to="-330"/>
    <trip id="672" depart="2045.00" from="-1085" to="-330"/>
    <trip id="674" depart="2052.00" from="-819" to="-330"/>
    <trip id="675" depart="2075.00" from="-819" to="-330"/>
    <trip id="676" depart="2079.00" from="330" to="1085"/>
    <trip id="677" depart="2080.00" from="-1085" to="819"/>
    <trip id="679" depart="2085.00" from="-1085" to="-330"/>
    <trip id="680" depart="2090.00" from="-819" to="-330"/>
    <trip id="681" depart="2092.00" from="-1085" to="-330"/>
    <trip id="683" depart="2095.00" from="330" to="819"/>
    <trip id="684" depart="2096.00" from="-1085" to="-330"/>
    <trip id="685" depart="2097.00" from="-1085" to="819"/>
    <trip id="686" depart="2097.00" from="-819" to="-330"/>
    <trip id="687" depart="2098.00" from="330" to="1085"/>
    <trip id="689" depart="2111.00" from="330" to="1085"/>
    <trip id="690" depart="2113.00" from="-1085" to="819"/>
    <trip id="692" depart="2117.00" from="-819" to="1085"/>
    <trip id="696" depart="2124.00" from="330" to="819"/>
    <trip id="697" depart="2127.00" from="-1085" to="819"/>
    <trip id="698" depart="2127.00" from="330" to="1085"/>
    <trip id="699" depart="2134.00" from="-1085" to="819"/>
    <trip id="700" depart="2137.00" from="330" to="1085"/>
    <trip id="702" depart="2141.00" from="-1085" to="-330"/>
    <trip id="703" depart="2142.00" from="330" to="819"/>
    <trip id="707" depart="2147.00" from="330" to="1085"/>
    <trip id="708" depart="2148.00" from="330" to="1085"/>
    <trip id="709" depart="2150.00" from="-1085" to="-330"/>
    <trip id="711" depart="2153.00" from="-1085" to="-330"/>
    <trip id="712" depart="2154.00" from="-1085" to="-330"/>
    <trip id="713" depart="2157.00" from="330" to="1085"/>
    <trip id="714" depart="2159.00" from="-1085" to="-330"/>
    <trip id="715" depart="2160.00" from="-1085" to="819"/>
    <trip id="717" depart="2161.00" from="-819" to="-330"/>
    <trip id="718" depart="2168.00" from="-819" to="1085"/>
    <trip id="719" depart="2170.00" from="-1085" to="819"/>
    <trip id="720" depart="2177.00" from="-819" to="-330"/>
    <trip id="721" depart="2177.00" from="-819" to="-330"/>
    <trip id="723" depart="2181.00" from="330" to="819"/>
    <trip id="725" depart="2184.00" from="-1085" to="-330"/>
    <trip id="727" depart="2188.00" from="330" to="819"/>