<?xml version="1.0" encoding="UTF-8"?>

<!-- generated on 2025-03-14 13:32:54 by Eclipse SUMO netedit Version 1.20.0
<configuration xmlns:xsi="http://www.w3.org/2001/XMLSchema-instance" xsi:noNamespaceSchemaLocation="http://sumo.dlr.de/xsd/neteditConfiguration.xsd">

    <input>
        <sumo-net-file value="/Volumes/Crucial_X6/repos/pytsc/pytsc/scenarios/sumo/random_grid_singles/random_grid_8.net.xml"/>
    </input>

    <output>
        <output-file value="/Volumes/Crucial_X6/repos/pytsc/pytsc/scenarios/sumo/random_grid_singles/random_grid_8.net.xml"/>
    </output>

    <processing>
        <geometry.min-radius.fix.railways value="false"/>
        <geometry.max-grade.fix value="false"/>
        <offset.disable-normalization value="true"/>
        <lefthand value="0"/>
    </processing>

    <junctions>
        <no-turnarounds value="true"/>
        <junctions.corner-detail value="5"/>
        <junctions.limit-turn-speed value="5.50"/>
        <rectangular-lane-cut value="0"/>
    </junctions>

    <pedestrian>
        <walkingareas value="0"/>
    </pedestrian>

</configuration>
-->

<net version="1.20" junctionCornerDetail="5" limitTurnSpeed="5.50" xmlns:xsi="http://www.w3.org/2001/XMLSchema-instance" xsi:noNamespaceSchemaLocation="http://sumo.dlr.de/xsd/net_file.xsd">

    <location netOffset="2000.00,1800.00" convBoundary="1800.00,1200.00,2000.00,1800.00" origBoundary="-2000.00,-1800.00,800.00,1200.00" projParameter="!"/>

    <edge id=":2_0" function="internal">
        <lane id=":2_0_0" index="0" speed="6.51" length="9.03" shape="1995.20,1410.40 1994.85,1407.95 1993.80,1406.20 1992.05,1405.15 1989.60,1404.80"/>
    </edge>
    <edge id=":2_1" function="internal">
        <lane id=":2_1_0" index="0" speed="13.89" length="20.80" shape="1995.20,1410.40 1995.20,1389.60"/>
        <lane id=":2_1_1" index="1" speed="13.89" length="20.80" shape="1998.40,1410.40 1998.40,1389.60"/>
    </edge>
    <edge id=":2_3" function="internal">
        <lane id=":2_3_0" index="0" speed="3.65" length="1.44" shape="1998.40,1410.40 1999.20,1409.20"/>
    </edge>
    <edge id=":2_12" function="internal">
        <lane id=":2_12_0" index="0" speed="3.65" length="3.23" shape="1999.20,1409.20 2000.00,1408.80 2000.80,1409.20 2001.60,1410.40"/>
    </edge>
    <edge id=":2_4" function="internal">
        <lane id=":2_4_0" index="0" speed="13.89" length="20.80" shape="2004.80,1389.60 2004.80,1410.40"/>
        <lane id=":2_4_1" index="1" speed="13.89" length="20.80" shape="2001.60,1389.60 2001.60,1410.40"/>
    </edge>
    <edge id=":2_6" function="internal">
        <lane id=":2_6_0" index="0" speed="9.26" length="5.01" shape="2001.60,1389.60 2000.89,1394.56"/>
    </edge>
    <edge id=":2_7" function="internal">
        <lane id=":2_7_0" index="0" speed="3.65" length="1.44" shape="2001.60,1389.60 2000.80,1390.80"/>
    </edge>
    <edge id=":2_13" function="internal">
        <lane id=":2_13_0" index="0" speed="9.26" length="14.34" shape="2000.89,1394.56 2000.85,1394.85 1998.60,1398.60 1994.85,1400.85 1989.60,1401.60"/>
    </edge>
    <edge id=":2_14" function="internal">
        <lane id=":2_14_0" index="0" speed="3.65" length="3.23" shape="2000.80,1390.80 2000.00,1391.20 1999.20,1390.80 1998.40,1389.60"/>
    </edge>
    <edge id=":2_8" function="internal">
        <lane id=":2_8_0" index="0" speed="6.51" length="9.03" shape="1989.60,1395.20 1992.05,1394.85 1993.80,1393.80 1994.85,1392.05 1995.20,1389.60"/>
        <lane id=":2_8_1" index="1" speed="8.00" length="14.19" shape="1989.60,1398.40 1993.45,1397.85 1996.20,1396.20 1997.85,1393.45 1998.40,1389.60"/>
    </edge>
    <edge id=":2_10" function="internal">
        <lane id=":2_10_0" index="0" speed="9.26" length="19.35" shape="1989.60,1398.40 1994.85,1399.15 1998.60,1401.40 2000.85,1405.15 2001.60,1410.40"/>
    </edge>
    <edge id=":2_11" function="internal">
        <lane id=":2_11_0" index="0" speed="3.65" length="2.34" shape="1989.60,1398.40 1990.80,1399.20 1991.20,1400.00"/>
    </edge>
    <edge id=":2_15" function="internal">
        <lane id=":2_15_0" index="0" speed="3.65" length="2.34" shape="1991.20,1400.00 1990.80,1400.80 1989.60,1401.60"/>
    </edge>

    <edge id="-154" from="153" to="2" priority="-1">
        <lane id="-154_0" index="0" speed="13.89" length="189.60" shape="1800.00,1395.20 1989.60,1395.20"/>
        <lane id="-154_1" index="1" speed="13.89" length="189.60" shape="1800.00,1398.40 1989.60,1398.40"/>
    </edge>
    <edge id="-21" from="20" to="2" priority="-1">
        <lane id="-21_0" index="0" speed="13.89" length="189.60" shape="2004.80,1200.00 2004.80,1389.60"/>
        <lane id="-21_1" index="1" speed="13.89" length="189.60" shape="2001.60,1200.00 2001.60,1389.60"/>
    </edge>
    <edge id="-3" from="2" to="1" priority="-1">
        <lane id="-3_0" index="0" speed="13.89" length="389.60" shape="2004.80,1410.40 2004.80,1800.00"/>
        <lane id="-3_1" index="1" speed="13.89" length="389.60" shape="2001.60,1410.40 2001.60,1800.00"/>
    </edge>
    <edge id="154" from="2" to="153" priority="-1">
        <lane id="154_0" index="0" speed="13.89" length="189.60" shape="1989.60,1404.80 1800.00,1404.80"/>
        <lane id="154_1" index="1" speed="13.89" length="189.60" shape="1989.60,1401.60 1800.00,1401.60"/>
    </edge>
    <edge id="21" from="2" to="20" priority="-1">
        <lane id="21_0" index="0" speed="13.89" length="189.60" shape="1995.20,1389.60 1995.20,1200.00"/>
        <lane id="21_1" index="1" speed="13.89" length="189.60" shape="1998.40,1389.60 1998.40,1200.00"/>
    </edge>
    <edge id="3" from="1" to="2" priority="-1">
        <lane id="3_0" index="0" speed="13.89" length="389.60" shape="1995.20,1800.00 1995.20,1410.40"/>
        <lane id="3_1" index="1" speed="13.89" length="389.60" shape="1998.40,1800.00 1998.40,1410.40"/>
    </edge>

    <tlLogic id="2" type="static" programID="0" offset="0">
        <phase duration="42" state="GGGgGGggrrrr"/>
        <phase duration="3"  state="Gyyyyyyyrrrr"/>
        <phase duration="42" state="GrrrrrrrGGGg"/>
        <phase duration="3"  state="Grrrrrrryyyy"/>
    </tlLogic>

    <junction id="1" type="dead_end" x="2000.00" y="1800.00" incLanes="-3_0 -3_1" intLanes="" shape="2000.00,1800.00 2006.40,1800.00 2000.00,1800.00"/>
    <junction id="153" type="dead_end" x="1800.00" y="1400.00" incLanes="154_0 154_1" intLanes="" shape="1800.00,1400.00 1800.00,1406.40 1800.00,1400.00"/>
    <junction id="2" type="traffic_light" x="2000.00" y="1400.00" incLanes="3_0 3_1 -21_0 -21_1 -154_0 -154_1" intLanes=":2_0_0 :2_1_0 :2_1_1 :2_12_0 :2_4_0 :2_4_1 :2_13_0 :2_14_0 :2_8_0 :2_8_1 :2_10_0 :2_15_0" shape="1993.60,1410.40 2006.40,1410.40 2006.40,1389.60 1993.60,1389.60 1993.16,1391.82 1992.60,1392.60 1991.82,1393.16 1990.82,1393.49 1989.60,1393.60 1989.60,1406.40 1991.82,1406.84 1992.60,1407.40 1993.16,1408.18 1993.49,1409.18">
        <request index="0"  response="000000000000" foes="000000000000" cont="0"/>
        <request index="1"  response="000000000000" foes="011111000000" cont="0"/>
        <request index="2"  response="000000000000" foes="011111000000" cont="0"/>
        <request index="3"  response="010000110000" foes="010000110000" cont="1"/>
        <request index="4"  response="000000000000" foes="010000001000" cont="0"/>
        <request index="5"  response="000000000000" foes="010000001000" cont="0"/>
        <request index="6"  response="000000000110" foes="110000000110" cont="1"/>
        <request index="7"  response="001100000110" foes="001100000110" cont="1"/>
        <request index="8"  response="000000000110" foes="000010000110" cont="0"/>
        <request index="9"  response="000000000110" foes="000010000110" cont="0"/>
        <request index="10" response="000001110110" foes="000001111110" cont="0"/>
        <request index="11" response="000001000000" foes="000001000000" cont="1"/>
    </junction>
    <junction id="20" type="dead_end" x="2000.00" y="1200.00" incLanes="21_0 21_1" intLanes="" shape="2000.00,1200.00 1993.60,1200.00 2000.00,1200.00"/>

    <junction id=":2_12_0" type="internal" x="1999.20" y="1409.20" incLanes=":2_3_0 -154_1 -21_0 -21_1" intLanes=":2_4_0 :2_4_1 :2_10_0"/>
    <junction id=":2_13_0" type="internal" x="2000.89" y="1394.56" incLanes=":2_6_0 3_0 3_1" intLanes=":2_0_0 :2_1_0 :2_1_1 :2_10_0 :2_11_0"/>
    <junction id=":2_14_0" type="internal" x="2000.80" y="1390.80" incLanes=":2_7_0 -154_0 -154_1 3_0 3_1" intLanes=":2_1_0 :2_1_1 :2_8_0 :2_8_1"/>
    <junction id=":2_15_0" type="internal" x="1991.20" y="1400.00" incLanes=":2_11_0 -21_1 3_0" intLanes=":2_0_0 :2_6_0"/>

    <connection from="-154" to="21" fromLane="0" toLane="0" via=":2_8_0" tl="2" linkIndex="8" dir="r" state="o"/>
    <connection from="-154" to="21" fromLane="1" toLane="1" via=":2_8_1" tl="2" linkIndex="9" dir="r" state="o"/>
    <connection from="-154" to="-3" fromLane="1" toLane="1" via=":2_10_0" tl="2" linkIndex="10" dir="l" state="o"/>
    <connection from="-154" to="154" fromLane="1" toLane="1" via=":2_11_0" tl="2" linkIndex="11" dir="t" state="o"/>
    <connection from="-21" to="-3" fromLane="0" toLane="0" via=":2_4_0" tl="2" linkIndex="4" dir="s" state="O"/>
    <connection from="-21" to="-3" fromLane="1" toLane="1" via=":2_4_1" tl="2" linkIndex="5" dir="s" state="O"/>
    <connection from="-21" to="154" fromLane="1" toLane="1" via=":2_6_0" tl="2" linkIndex="6" dir="l" state="o"/>
    <connection from="-21" to="21" fromLane="1" toLane="1" via=":2_7_0" tl="2" linkIndex="7" dir="t" state="o"/>
    <connection from="3" to="154" fromLane="0" toLane="0" via=":2_0_0" tl="2" linkIndex="0" dir="r" state="O"/>
    <connection from="3" to="21" fromLane="0" toLane="0" via=":2_1_0" tl="2" linkIndex="1" dir="s" state="O"/>
    <connection from="3" to="21" fromLane="1" toLane="1" via=":2_1_1" tl="2" linkIndex="2" dir="s" state="O"/>
    <connection from="3" to="-3" fromLane="1" toLane="1" via=":2_3_0" tl="2" linkIndex="3" dir="t" state="o"/>

    <connection from=":2_0" to="154" fromLane="0" toLane="0" dir="r" state="M"/>
    <connection from=":2_1" to="21" fromLane="0" toLane="0" dir="s" state="M"/>
    <connection from=":2_1" to="21" fromLane="1" toLane="1" dir="s" state="M"/>
    <connection from=":2_3" to="-3" fromLane="0" toLane="1" via=":2_12_0" dir="t" state="m"/>
    <connection from=":2_12" to="-3" fromLane="0" toLane="1" dir="t" state="M"/>
    <connection from=":2_4" to="-3" fromLane="0" toLane="0" dir="s" state="M"/>
    <connection from=":2_4" to="-3" fromLane="1" toLane="1" dir="s" state="M"/>
    <connection from=":2_6" to="154" fromLane="0" toLane="1" via=":2_13_0" dir="l" state="m"/>
    <connection from=":2_13" to="154" fromLane="0" toLane="1" dir="l" state="M"/>
    <connection from=":2_7" to="21" fromLane="0" toLane="1" via=":2_14_0" dir="t" state="m"/>
    <connection from=":2_14" to="21" fromLane="0" toLane="1" dir="t" state="M"/>
    <connection from=":2_8" to="21" fromLane="0" toLane="0" dir="r" state="M"/>
    <connection from=":2_8" to="21" fromLane="1" toLane="1" dir="r" state="M"/>
    <connection from=":2_10" to="-3" fromLane="0" toLane="1" dir="l" state="M"/>
    <connection from=":2_11" to="154" fromLane="0" toLane="1" via=":2_15_0" dir="t" state="m"/>
    <connection from=":2_15" to="154" fromLane="0" toLane="1" dir="t" state="M"/>

</net>
