<?xml version="1.0" encoding="UTF-8"?>

<!-- generated on 2025-03-14 13:28:40.471642 by randomTrips.py v1_22_0+0449-9311ec3459f
<configuration>
    <net-file value="random_grid_9.net.xml"/>
    <output-trip-file value="random_grid_9_medium.trips.xml"/>
    <validate value="True"/>
    <period value="3.0"/>
</configuration>
-->

<!-- generated on 2025-03-14 13:28:40 by Eclipse SUMO duarouter Version v1_22_0+0449-9311ec3459f
<duarouterConfiguration xmlns:xsi="http://www.w3.org/2001/XMLSchema-instance" xsi:noNamespaceSchemaLocation="http://sumo.dlr.de/xsd/duarouterConfiguration.xsd">

    <input>
        <net-file value="random_grid_9.net.xml"/>
        <route-files value="random_grid_9_medium.trips.xml"/>
    </input>

    <output>
        <output-file value="random_grid_9_medium.trips.xml.tmp"/>
        <alternatives-output value="NUL"/>
        <write-trips value="true"/>
    </output>

    <time>
        <begin value="0.0"/>
        <end value="3600.0"/>
    </time>

    <report>
        <no-warnings value="true"/>
        <ignore-errors value="true"/>
        <no-step-log value="true"/>
    </report>

</duarouterConfiguration>
-->

<routes xmlns:xsi="http://www.w3.org/2001/XMLSchema-instance" xsi:noNamespaceSchemaLocation="http://sumo.dlr.de/xsd/routes_file.xsd">
    <trip id="2" depart="6.00" from="330" to="819"/>
    <trip id="4" depart="12.00" from="-833" to="-330"/>
    <trip id="5" depart="15.00" from="-819" to="1085"/>
    <trip id="6" depart="18.00" from="-1085" to="-330"/>
    <trip id="7" depart="21.00" from="330" to="1085"/>
    <trip id="8" depart="24.00" from="-819" to="1085"/>
    <trip id="11" depart="33.00" from="-819" to="-330"/>
    <trip id="13" depart="39.00" from="-1085" to="-330"/>
    <trip id="17" depart="51.00" from="-819" to="1085"/>
    <trip id="19" depart="57.00" from="833" to="1085"/>
    <trip id="22" depart="66.00" from="-1085" to="-833"/>
    <trip id="23" depart="69.00" from="-1085" to="-833"/>
    <trip id="26" depart="78.00" from="-819" to="833"/>
    <trip id="27" depart="81.00" from="330" to="819"/>
    <trip id="28" depart="84.00" from="-1085" to="819"/>
    <trip id="29" depart="87.00" from="-1085" to="-833"/>
    <trip id="31" depart="93.00" from="-833" to="819"/>
    <trip id="33" depart="99.00" from="-819" to="-330"/>
    <trip id="35" depart="105.00" from="-819" to="833"/>
    <trip id="38" depart="114.00" from="833" to="1085"/>
    <trip id="40" depart="120.00" from="-833" to="-833"/>
    <trip id="43" depart="129.00" from="833" to="1085"/>
    <trip id="44" depart="132.00" from="-1085" to="-330"/>
    <trip id="45" depart="135.00" from="-1085" to="819"/>
    <trip id="46" depart="138.00" from="330" to="1085"/>
    <trip id="47" depart="141.00" from="-1085" to="-833"/>
    <trip id="48" depart="144.00" from="833" to="1085"/>
    <trip id="49" depart="147.00" from="833" to="833"/>
    <trip id="50" depart="150.00" from="-1085" to="819"/>
    <trip id="51" depart="153.00" from="330" to="1085"/>
    <trip id="56" depart="168.00" from="-833" to="-330"/>
    <trip id="57" depart="171.00" from="833" to="833"/>
    <trip id="60" depart="180.00" from="330" to="1085"/>
    <trip id="61" depart="183.00" from="330" to="1085"/>
    <trip id="62" depart="186.00" from="-1085" to="-833"/>
    <trip id="64" depart="192.00" from="833" to="833"/>
    <trip id="65" depart="195.00" from="-819" to="-330"/>
    <trip id="66" depart="198.00" from="833" to="833"/>
    <trip id="68" depart="204.00" from="-1085" to="819"/>
    <trip id="71" depart="213.00" from="-819" to="833"/>
    <trip id="72" depart="216.00" from="-833" to="-833"/>
    <trip id="73" depart="219.00" from="-833" to="819"/>
    <trip id="77" depart="231.00" from="-1085" to="-833"/>
    <trip id="78" depart="234.00" from="-819" to="1085"/>
    <trip id="80" depart="240.00" from="-1085" to="819"/>
    <trip id="81" depart="243.00" from="-819" to="833"/>
    <trip id="84" depart="252.00" from="-819" to="-330"/>
    <trip id="85" depart="255.00" from="833" to="1085"/>
    <trip id="86" depart="258.00" from="-833" to="819"/>
    <trip id="90" depart="270.00" from="330" to="819"/>
    <trip id="92" depart="276.00" from="-833" to="-833"/>
    <trip id="95" depart="285.00" from="-833" to="-833"/>
    <trip id="96" depart="288.00" from="-819" to="833"/>
    <trip id="98" depart="294.00" from="-833" to="-330"/>
    <trip id="99" depart="297.00" from="833" to="833"/>
    <trip id="100" depart="300.00" from="833" to="833"/>
    <trip id="102" depart="306.00" from="-833" to="-833"/>
    <trip id="103" depart="309.00" from="-833" to="-330"/>
    <trip id="104" depart="312.00" from="-819" to="833"/>
    <trip id="107" depart="321.00" from="833" to="833"/>
    <trip id="108" depart="324.00" from="-833" to="819"/>
    <trip id="109" depart="327.00" from="-1085" to="-833"/>
    <trip id="110" depart="330.00" from="833" to="1085"/>
    <trip id="111" depart="333.00" from="-833" to="819"/>
    <trip id="115" depart="345.00" from="-1085" to="-330"/>
    <trip id="116" depart="348.00" from="-833" to="819"/>
    <trip id="117" depart="351.00" from="-819" to="-330"/>
    <trip id="119" depart="357.00" from="-833" to="819"/>
    <trip id="127" depart="381.00" from="833" to="833"/>
    <trip id="128" depart="384.00" from="-1085" to="-833"/>
    <trip id="129" depart="387.00" from="-819" to="833"/>
    <trip id="130" depart="390.00" from="833" to="833"/>
    <trip id="131" depart="393.00" from="-819" to="-330"/>
    <trip id="133" depart="399.00" from="330" to="833"/>
    <trip id="136" depart="408.00" from="330" to="833"/>
    <trip id="137" depart="411.00" from="-1085" to="-330"/>
    <trip id="144" depart="432.00" from="-833" to="-833"/>
    <trip id="145" depart="435.00" from="-1085" to="819"/>
    <trip id="147" depart="441.00" from="330" to="1085"/>
    <trip id="148" depart="444.00" from="-833" to="-330"/>
    <trip id="150" depart="450.00" from="833" to="1085"/>
    <trip id="151" depart="453.00" from="833" to="1085"/>
    <trip id="152" depart="456.00" from="-1085" to="-330"/>
    <trip id="153" depart="459.00" from="-819" to="833"/>
    <trip id="154" depart="462.00" from="330" to="833"/>
    <trip id="156" depart="468.00" from="-819" to="-330"/>
    <trip id="157" depart="471.00" from="330" to="833"/>
    <trip id="158" depart="474.00" from="-833" to="819"/>
    <trip id="160" depart="480.00" from="833" to="833"/>
    <trip id="161" depart="483.00" from="833" to="833"/>
    <trip id="162" depart="486.00" from="-1085" to="819"/>
    <trip id="163" depart="489.00" from="-819" to="833"/>
    <trip id="164" depart="492.00" from="833" to="833"/>
    <trip id="167" depart="501.00" from="833" to="833"/>
    <trip id="168" depart="504.00" from="-819" to="833"/>
    <trip id="169" depart="507.00" from="-833" to="-833"/>
    <trip id="171" depart="513.00" from="-1085" to="-330"/>
    <trip id="172" depart="516.00" from="-819" to="833"/>
    <trip id="175" depart="525.00" from="833" to="1085"/>
    <trip id="181" depart="543.00" from="330" to="1085"/>
    <trip id="182" depart="546.00" from="-819" to="1085"/>
    <trip id="185" depart="555.00" from="-833" to="819"/>
    <trip id="186" depart="558.00" from="330" to="819"/>
    <trip id="187" depart="561.00" from="-819" to="-330"/>
    <trip id="189" depart="567.00" from="-819" to="833"/>
    <trip id="191" depart="573.00" from="-819" to="1085"/>
    <trip id="192" depart="576.00" from="-833" to="-833"/>
    <trip id="196" depart="588.00" from="-819" to="1085"/>
    <trip id="197" depart="591.00" from="-1085" to="-833"/>
    <trip id="199" depart="597.00" from="330" to="1085"/>
    <trip id="200" depart="600.00" from="-833" to="-833"/>
    <trip id="207" depart="621.00" from="-1085" to="-330"/>
    <trip id="208" depart="624.00" from="-819" to="1085"/>
    <trip id="210" depart="630.00" from="-833" to="819"/>
    <trip id="211" depart="633.00" from="-1085" to="819"/>
    <trip id="212" depart="636.00" from="-833" to="-833"/>
    <trip id="214" depart="642.00" from="330" to="819"/>
    <trip id="217" depart="651.00" from="-833" to="-330"/>
    <trip id="218" depart="654.00" from="-819" to="833"/>
    <trip id="220" depart="660.00" from="330" to="833"/>
    <trip id="223" depart="669.00" from="330" to="1085"/>
    <trip id="224" depart="672.00" from="833" to="1085"/>
    <trip id="226" depart="678.00" from="-833" to="-833"/>
    <trip id="228" depart="684.00" from="330" to="1085"/>
    <trip id="230" depart="690.00" from="-1085" to="-833"/>
    <trip id="232" depart="696.00" from="-833" to="-330"/>
    <trip id="236" depart="708.00" from="-833" to="-833"/>
    <trip id="238" depart="714.00" from="-833" to="819"/>
    <trip id="240" depart="720.00" from="-819" to="-330"/>
    <trip id="242" depart="726.00" from="833" to="833"/>
    <trip id="243" depart="729.00" from="-833" to="819"/>
    <trip id="244" depart="732.00" from="-833" to="819"/>
    <trip id="246" depart="738.00" from="-833" to="-330"/>
    <trip id="248" depart="744.00" from="-833" to="-330"/>
    <trip id="249" depart="747.00" from="-833" to="-330"/>
    <trip id="251" depart="753.00" from="-819" to="1085"/>
    <trip id="252" depart="756.00" from="-1085" to="819"/>
    <trip id="254" depart="762.00" from="-1085" to="-833"/>
    <trip id="257" depart="771.00" from="330" to="833"/>
    <trip id="258" depart="774.00" from="-819" to="-330"/>
    <trip id="261" depart="783.00" from="330" to="819"/>
    <trip id="262" depart="786.00" from="330" to="819"/>
    <trip id="264" depart="792.00" from="-1085" to="-330"/>
    <trip id="265" depart="795.00" from="-1085" to="819"/>
    <trip id="266" depart="798.00" from="-833" to="-833"/>
    <trip id="267" depart="801.00" from="330" to="819"/>
    <trip id="268" depart="804.00" from="-1085" to="819"/>
    <trip id="270" depart="810.00" from="833" to="833"/>
    <trip id="271" depart="813.00" from="-1085" to="-330"/>
    <trip id="275" depart="825.00" from="330" to="819"/>
    <trip id="276" depart="828.00" from="-1085" to="819"/>
    <trip id="280" depart="840.00" from="-833" to="-833"/>
    <trip id="281" depart="843.00" from="-833" to="-833"/>
    <trip id="282" depart="846.00" from="833" to="833"/>
    <trip id="284" depart="852.00" from="330" to="833"/>
    <trip id="285" depart="855.00" from="330" to="1085"/>
    <trip id="286" depart="858.00" from="330" to="833"/>
    <trip id="287" depart="861.00" from="-819" to="833"/>
    <trip id="289" depart="867.00" from="-833" to="819"/>
    <trip id="290" depart="870.00" from="-819" to="833"/>
    <trip id="293" depart="879.00" from="-833" to="819"/>
    <trip id="294" depart="882.00" from="-819" to="-330"/>
    <trip id="297" depart="891.00" from="-819" to="833"/>
    <trip id="300" depart="900.00" from="-1085" to="819"/>
    <trip id="301" depart="903.00" from="-833" to="819"/>
    <trip id="302" depart="906.00" from="330" to="819"/>
    <trip id="303" depart="909.00" from="-833" to="819"/>
    <trip id="304" depart="912.00" from="-1085" to="-833"/>
    <trip id="310" depart="930.00" from="-819" to="-330"/>
    <trip id="311" depart="933.00" from="-1085" to="-330"/>
    <trip id="312" depart="936.00" from="-833" to="819"/>
    <trip id="313" depart="939.00" from="-1085" to="-833"/>
    <trip id="314" depart="942.00" from="-833" to="819"/>
    <trip id="315" depart="945.00" from="833" to="1085"/>
    <trip id="316" depart="948.00" from="-819" to="-330"/>
    <trip id="317" depart="951.00" from="-1085" to="-833"/>
    <trip id="318" depart="954.00" from="-1085" to="-330"/>
    <trip id="319" depart="957.00" from="-833" to="-833"/>
    <trip id="320" depart="960.00" from="833" to="1085"/>
    <trip id="322" depart="966.00" from="833" to="1085"/>
    <trip id="323" depart="969.00" from="833" to="1085"/>
    <trip id="325" depart="975.00" from="-1085" to="-330"/>
    <trip id="326" depart="978.00" from="833" to="1085"/>
    <trip id="327" depart="981.00" from="833" to="1085"/>
    <trip id="328" depart="984.00" from="-1085" to="819"/>
    <trip id="329" depart="987.00" from="-1085" to="-330"/>
    <trip id="330" depart="990.00" from="-833" to="-833"/>
    <trip id="332" depart="996.00" from="330" to="819"/>
    <trip id="337" depart="1011.00" from="330" to="819"/>
    <trip id="338" depart="1014.00" from="330" to="833"/>
    <trip id="341" depart="1023.00" from="-1085" to="-330"/>
    <trip id="343" depart="1029.00" from="-833" to="-833"/>
    <trip id="345" depart="1035.00" from="330" to="1085"/>
    <trip id="346" depart="1038.00" from="330" to="833"/>
    <trip id="347" depart="1041.00" from="330" to="819"/>
    <trip id="348" depart="1044.00" from="330" to="833"/>
    <trip id="350" depart="1050.00" from="330" to="833"/>
    <trip id="352" depart="1056.00" from="-1085" to="-833"/>
    <trip id="353" depart="1059.00" from="330" to="1085"/>
    <trip id="354" depart="1062.00" from="-819" to="-330"/>
    <trip id="355" depart="1065.00" from="330" to="819"/>
    <trip id="356" depart="1068.00" from="833" to="1085"/>
    <trip id="357" depart="1071.00" from="-833" to="-330"/>
    <trip id="361" depart="1083.00" from="833" to="1085"/>
    <trip id="362" depart="1086.00" from="833" to="833"/>
    <trip id="364" depart="1092.00" from="-1085" to="819"/>
    <trip id="365" depart="1095.00" from="-833" to="819"/>
    <trip id="367" depart="1101.00" from="-833" to="819"/>
    <trip id="368" depart="1104.00" from="-833" to="-330"/>
    <trip id="370" depart="1110.00" from="330" to="833"/>
    <trip id="372" depart="1116.00" from="-819" to="833"/>
    <trip id="373" depart="1119.00" from="833" to="1085"/>
    <trip id="374" depart="1122.00" from="-833" to="-833"/>
    <trip id="375" depart="1125.00" from="-819" to="833"/>
    <trip id="379" depart="1137.00" from="-1085" to="-833"/>
    <trip id="380" depart="1140.00" from="330" to="819"/>
    <trip id="383" depart="1149.00" from="-833" to="819"/>
    <trip id="387" depart="1161.00" from="-833" to="-330"/>
    <trip id="388" depart="1164.00" from="833" to="833"/>
    <trip id="389" depart="1167.00" from="-833" to="-330"/>
    <trip id="390" depart="1170.00" from="833" to="1085"/>
    <trip id="391" depart="1173.00" from="330" to="1085"/>
    <trip id="392" depart="1176.00" from="-819" to="833"/>
    <trip id="394" depart="1182.00" from="-833" to="-833"/>
    <trip id="395" depart="1185.00" from="833" to="1085"/>
    <trip id="396" depart="1188.00" from="833" to="833"/>
    <trip id="402" depart="1206.00" from="-833" to="-330"/>
    <trip id="403" depart="1209.00" from="-833" to="-833"/>
    <trip id="405" depart="1215.00" from="-833" to="-833"/>
    <trip id="406" depart="1218.00" from="-1085" to="819"/>
    <trip id="407" depart="1221.00" from="-833" to="-833"/>
    <trip id="409" depart="1227.00" from="330" to="819"/>
    <trip id="411" depart="1233.00" from="330" to="833"/>
    <trip id="412" depart="1236.00" from="833" to="1085"/>
    <trip id="415" depart="1245.00" from="833" to="1085"/>
    <trip id="417" depart="1251.00" from="330" to="1085"/>
    <trip id="421" depart="1263.00" from="330" to="833"/>
    <trip id="422" depart="1266.00" from="833" to="833"/>
    <trip id="424" depart="1272.00" from="330" to="819"/>
    <trip id="426" depart="1278.00" from="-1085" to="819"/>
    <trip id="427" depart="1281.00" from="833" to="833"/>
    <trip id="428" depart="1284.00" from="330" to="1085"/>
    <trip id="429" depart="1287.00" from="-1085" to="819"/>
    <trip id="430" depart="1290.00" from="833" to="1085"/>
    <trip id="431" depart="1293.00" from="330" to="833"/>
    <trip id="432" depart="1296.00" from="-1085" to="819"/>
    <trip id="435" depart="1305.00" from="-833" to="819"/>
    <trip id="436" depart="1308.00" from="-1085" to="-330"/>
    <trip id="438" depart="1314.00" from="-819" to="833"/>
    <trip id="444" depart="1332.00" from="-819" to="1085"/>
    <trip id="445" depart="1335.00" from="330" to="1085"/>
    <trip id="446" depart="1338.00" from="-819" to="833"/>
    <trip id="447" depart="1341.00" from="-1085" to="-833"/>
    <trip id="448" depart="1344.00" from="-833" to="-833"/>
    <trip id="452" depart="1356.00" from="-819" to="1085"/>
    <trip id="453" depart="1359.00" from="330" to="819"/>
    <trip id="454" depart="1362.00" from="-1085" to="819"/>
    <trip id="458" depart="1374.00" from="330" to="819"/>
    <trip id="459" depart="1377.00" from="330" to="819"/>
    <trip id="460" depart="1380.00" from="330" to="833"/>
    <trip id="461" depart="1383.00" from="330" to="833"/>
    <trip id="466" depart="1398.00" from="-1085" to="-330"/>
    <trip id="470" depart="1410.00" from="833" to="1085"/>
    <trip id="472" depart="1416.00" from="-819" to="-330"/>
    <trip id="474" depart="1422.00" from="833" to="833"/>
    <trip id="475" depart="1425.00" from="330" to="833"/>
    <trip id="476" depart="1428.00" from="833" to="833"/>
    <trip id="479" depart="1437.00" from="-833" to="819"/>
    <trip id="480" depart="1440.00" from="330" to="1085"/>
    <trip id="481" depart="1443.00" from="833" to="833"/>
    <trip id="482" depart="1446.00" from="-1085" to="-833"/>
    <trip id="485" depart="1455.00" from="-819" to="-330"/>
    <trip id="486" depart="1458.00" from="833" to="833"/>
    <trip id="487" depart="1461.00" from="-819" to="1085"/>
    <trip id="489" depart="1467.00" from="-819" to="1085"/>
    <trip id="492" depart="1476.00" from="330" to="819"/>
    <trip id="493" depart="1479.00" from="833" to="1085"/>
    <trip id="495" depart="1485.00" from="-833" to="-330"/>
    <trip id="498" depart="1494.00" from="-819" to="1085"/>
    <trip id="499" depart="1497.00" from="833" to="833"/>
    <trip id="500" depart="1500.00" from="-1085" to="819"/>
    <trip id="503" depart="1509.00" from="-1085" to="-330"/>
    <trip id="504" depart="1512.00" from="833" to="1085"/>
    <trip id="505" depart="1515.00" from="330" to="819"/>
    <trip id="506" depart="1518.00" from="-833" to="-330"/>
    <trip id="509" depart="1527.00" from="-1085" to="819"/>
    <trip id="514" depart="1542.00" from="-1085" to="-330"/>
    <trip id="515" depart="1545.00" from="-819" to="-330"/>
    <trip id="517" depart="1551.00" from="-1085" to="819"/>
    <trip id="519" depart="1557.00" from="-1085" to="-330"/>
    <trip id="520" depart="1560.00" from="330" to="1085"/>
    <trip id="521" depart="1563.00" from="330" to="1085"/>
    <trip id="522" depart="1566.00" from="330" to="1085"/>
    <trip id="525" depart="1575.00" from="330" to="833"/>
    <trip id="529" depart="1587.00" from="330" to="1085"/>
    <trip id="531" depart="1593.00" from="-1085" to="819"/>
    <trip id="532" depart="1596.00" from="-1085" to="-833"/>
    <trip id="533" depart="1599.00" from="330" to="1085"/>
    <trip id="534" depart="1602.00" from="-819" to="833"/>
    <trip id="537" depart="1611.00" from="330" to="833"/>
    <trip id="538" depart="1614.00" from="330" to="819"/>
    <trip id="540" depart="1620.00" from="-833" to="-833"/>
    <trip id="541" depart="1623.00" from="-819" to="1085"/>
    <trip id="542" depart="1626.00" from="-833" to="-330"/>
    <trip id="543" depart="1629.00" from="-833" to="819"/>
    <trip id="544" depart="1632.00" from="-819" to="-330"/>
    <trip id="547" depart="1641.00" from="-1085" to="819"/>
    <trip id="548" depart="1644.00" from="833" to="1085"/>
    <trip id="550" depart="1650.00" from="-819" to="-330"/>
    <trip id="552" depart="1656.00" from="330" to="833"/>
    <trip id="553" depart="1659.00" from="330" to="833"/>
    <trip id="555" depart="1665.00" from="-833" to="-833"/>
    <trip id="560" depart="1680.00" from="833" to="833"/>
    <trip id="563" depart="1689.00" from="833" to="833"/>
    <trip id="564" depart="1692.00" from="-819" to="-330"/>
    <trip id="566" depart="1698.00" from="-819" to="-330"/>
    <trip id="567" depart="1701.00" from="833" to="1085"/>
    <trip id="568" depart="1704.00" from="-833" to="-330"/>
    <trip id="571" depart="1713.00" from="-833" to="-833"/>
    <trip id="573" depart="1719.00" from="330" to="1085"/>
    <trip id="574" depart="1722.00" from="-1085" to="-330"/>
    <trip id="575" depart="1725.00" from="-1085" to="819"/>
    <trip id="577" depart="1731.00" from="330" to="1085"/>
    <trip id="578" depart="1734.00" from="-833" to="-833"/>
    <trip id="580" depart="1740.00" from="-833" to="-833"/>
    <trip id="581" depart="1743.00" from="330" to="1085"/>
    <trip id="583" depart="1749.00" from="-819" to="1085"/>
    <trip id="584" depart="1752.00" from="-1085" to="-833"/>
    <trip id="585" depart="1755.00" from="-819" to="-330"/>
    <trip id="587" depart="1761.00" from="-1085" to="819"/>
    <trip id="588" depart="1764.00" from="-1085" to="-833"/>
    <trip id="589" depart="1767.00" from="330" to="1085"/>
    <trip id="590" depart="1770.00" from="833" to="833"/>
    <trip id="592" depart="1776.00" from="-1085" to="-330"/>
    <trip id="593" depart="1779.00" from="833" to="833"/>
    <trip id="595" depart="1785.00" from="330" to="1085"/>
    <trip id="596" depart="1788.00" from="-1085" to="-330"/>
    <trip id="597" depart="1791.00" from="-819" to="833"/>
    <trip id="598" depart="1794.00" from="330" to="833"/>
    <trip id="607" depart="1821.00" from="330" to="833"/>
    <trip id="609" depart="1827.00" from="-1085" to="-330"/>
    <trip id="610" depart="1830.00" from="330" to="819"/>
    <trip id="612" depart="1836.00" from="330" to="1085"/>
    <trip id="613" depart="1839.00" from="330" to="819"/>
    <trip id="615" depart="1845.00" from="-833" to="819"/>
    <trip id="616" depart="1848.00" from="330" to="833"/>
    <trip id="621" depart="1863.00" from="-819" to="1085"/>
    <trip id="626" depart="1878.00" from="-833" to="819"/>
    <trip id="627" depart="1881.00" from="833" to="1085"/>
    <trip id="629" depart="1887.00" from="-819" to="1085"/>
    <trip id="630" depart="1890.00" from="-1085" to="-330"/>
    <trip id="633" depart="1899.00" from="-833" to="-330"/>
    <trip id="634" depart="1902.00" from="-819" to="1085"/>
    <trip id="636" depart="1908.00" from="-1085" to="-833"/>
    <trip id="637" depart="1911.00" from="-819" to="1085"/>
    <trip id="638" depart="1914.00" from="-819" to="1085"/>
    <trip id="639" depart="1917.00" from="330" to="819"/>
    <trip id="640" depart="1920.00" from="-1085" to="-330"/>
    <trip id="642" depart="1926.00" from="330" to="819"/>
    <trip id="643" depart="1929.00" from="833" to="833"/>
    <trip id="644" depart="1932.00" from="-819" to="1085"/>
    <trip id="645" depart="1935.00" from="-1085" to="-833"/>
    <trip id="647" depart="1941.00" from="-819" to="1085"/>
    <trip id="652" depart="1956.00" from="330" to="1085"/>
    <trip id="653" depart="1959.00" from="330" to="1085"/>
    <trip id="655" depart="1965.00" from="-1085" to="-833"/>
    <trip id="656" depart="1968.00" from="833" to="1085"/>
    <trip id="657" depart="1971.00" from="-819" to="-330"/>
    <trip id="659" depart="1977.00" from="-1085" to="819"/>
    <trip id="660" depart="1980.00" from="833" to="833"/>
    <trip id="661" depart="1983.00" from="-1085" to="-833"/>
    <trip id="663" depart="1989.00" from="-819" to="-330"/>
    <trip id="668" depart="2004.00" from="-833" to="-833"/>
    <trip id="669" depart="2007.00" from="330" to="1085"/>
    <trip id="670" depart="2010.00" from="-833" to="-833"/>
    <trip id="671" depart="2013.00" from="833" to="1085"/>
    <trip id="673" depart="2019.00" from="833" to="833"/>
    <trip id="674" depart="2022.00" from="-833" to="-833"/>
    <trip id="675" depart="2025.00" from="-819" to="1085"/>
    <trip id="676" depart="2028.00" from="833" to="833"/>
    <trip id="679" depart="2037.00" from="833" to="1085"/>
    <trip id="685" depart="2055.00" from="-819" to="1085"/>
    <trip id="686" depart="2058.00" from="-819" to="-330"/>
    <trip id="688" depart="2064.00" from="-819" to="833"/>
    <trip id="689" depart="2067.00" from="-819" to="-330"/>
    <trip id="690" depart="2070.00" from="833" to="833"/>
    <trip id="691" depart="2073.00" from="330" to="819"/>
    <trip id="692" depart="2076.00" from="-1085" to="-833"/>
    <trip id="694" depart="2082.00" from="-1085" to="819"/>
    <trip id="695" depart="2085.00" from="-833" to="-330"/>
    <trip id="696" depart="2088.00" from="-1085" to="-833"/>
    <trip id="697" depart="2091.00" from="833" to="1085"/>
    <trip id="698" depart="2094.00" from="330" to="1085"/>
    <trip id="699" depart="2097.00" from="-1085" to="-833"/>
    <trip id="700" depart="2100.00" from="-819" to="-330"/>
    <trip id="701" depart="2103.00" from="-833" to="819"/>
    <trip id="702" depart="2106.00" from="-833" to="-330"/>
    <trip id="703" depart="2109.00" from="833" to="1085"/>
    <trip id="705" depart="2115.00" from="-819" to="-330"/>
    <trip id="706" depart="2118.00" from="-833" to="819"/>
    <trip id="707" depart="2121.00" from="-819" to="1085"/>
    <trip id="711" depart="2133.00" from="833" to="1085"/>
    <trip id="712" depart="2136.00" from="-819" to="1085"/>
    <trip id="713" depart="2139.00" from="330" to="833"/>
    <trip id="714" depart="2142.00" from="-819" to="-330"/>
    <trip id="716" depart="2148.00" from="330" to="819"/>
    <trip id="717" depart="2151.00" from="330" to="819"/>
    <trip id="718" depart="2154.00" from="-819" to="-330"/>
    <trip id="720" depart="2160.00" from="-1085" to="819"/>
    <trip id="721" depart="2163.00" from="-833" to="819"/>
    <trip id="722" depart="2166.00" from="330" to="833"/>
    <trip id="723" depart="2169.00" from="-1085" to="819"/>
    <trip id="724" depart="2172.00" from="-833" to="-833"/>
    <trip id="725" depart="2175.00" from="-1085" to="-330"/>
    <trip id="728" depart="2184.00" from="-833" to="-833"/>
    <trip id="732" depart="2196.00" from="-1085" to="-833"/>
    <trip id="735" depart="2205.00" from="833" to="1085"/>
    <trip id="739" depart="2217.00" from="330" to="833"/>
    <trip id="740" depart="2220.00" from="-833" to="-833"/>
    <trip id="741" depart="2223.00" from="-1085" to="819"/>
    <trip id="743" depart="2229.00" from="-833" to="819"/>
    <trip id="744" depart="2232.00" from="-819" to="-330"/>
    <trip id="747" depart="2241.00" from="833" to="833"/>
    <trip id="748" depart="2244.00" from="-1085" to="819"/>
    <trip id="749" depart="2247.00" from="-819" to="833"/>
    <trip id="750" depart="2250.00" from="330" to="833"/>
    <trip id="751" depart="2253.00" from="-1085" to="819"/>
    <trip id="753" depart="2259.00" from="-1085" to="819"/>
    <trip id="755" depart="2265.00" from="-833" to="819"/>
    <trip id="756" depart="2268.00" from="330" to="833"/>
    <trip id="760" depart="2280.00" from="-819" to="-330"/>
    <trip id="761" depart="2283.00" from="330" to="1085"/>
    <trip id="762" depart="2286.00" from="-819" to="1085"/>
    <trip id="765" depart="2295.00" from="-819" to="833"/>
    <trip id="766" depart="2298.00" from="-833" to="-330"/>
    <trip id="767" depart="2301.00" from="833" to="1085"/>
    <trip id="768" depart="2304.00" from="833" to="1085"/>
    <trip id="769" depart="2307.00" from="-1085" to="819"/>
    <trip id="771" depart="2313.00" from="-819" to="-330"/>
    <trip id="775" depart="2325.00" from="330" to="1085"/>
    <trip id="776" depart="2328.00" from="-1085" to="-833"/>
    <trip id="777" depart="2331.00" from="-1085" to="819"/>
    <trip id="779" depart="2337.00" from="-819" to="833"/>
    <trip id="780" depart="2340.00" from="-833" to="819"/>
    <trip id="781" depart="2343.00" from="-1085" to="-833"/>
    <trip id="783" depart="2349.00" from="-833" to="819"/>
    <trip id="786" depart="2358.00" from="-833" to="819"/>
    <trip id="787" depart="2361.00" from="-819" to="833"/>
    <trip id="788" depart="2364.00" from="330" to="819"/>
    <trip id="791" depart="2373.00" from="-1085" to="-330"/>
    <trip id="792" depart="2376.00" from="-1085" to="-330"/>
    <trip id="794" depart="2382.00" from="-819" to="833"/>
    <trip id="795" depart="2385.00" from="833" to="833"/>
    <trip id="797" depart="2391.00" from="-833" to="-330"/>
    <trip id="798" depart="2394.00" from="-819" to="1085"/>
    <trip id="799" depart="2397.00" from="-833" to="-330"/>
    <trip id="801" depart="2403.00" from="330" to="819"/>
    <trip id="802" depart="2406.00" from="330" to="833"/>
    <trip id="804" depart="2412.00" from="-1085" to="-330"/>
    <trip id="805" depart="2415.00" from="330" to="1085"/>
    <trip id="806" depart="2418.00" from="330" to="819"/>
    <trip id="807" depart="2421.00" from="-833" to="819"/>
    <trip id="808" depart="2424.00" from="-833" to="819"/>
    <trip id="809" depart="2427.00" from="-819" to="833"/>
    <trip id="812" depart="2436.00" from="-1085" to="-330"/>
    <trip id="816" depart="2448.00" from="330" to="833"/>
    <trip id="818" depart="2454.00" from="-819" to="1085"/>
    <trip id="819" depart="2457.00" from="-819" to="1085"/>
    <trip id="821" depart="2463.00" from="-1085" to="-833"/>
    <trip id="823" depart="2469.00" from="-819" to="833"/>
    <trip id="824" depart="2472.00" from="-1085" to="-833"/>
    <trip id="825" depart="2475.00" from="-833" to="-833"/>
    <trip id="826" depart="2478.00" from="330" to="1085"/>
    <trip id="828" depart="2484.00" from="-819" to="-330"/>
    <trip id="829" depart="2487.00" from="833" to="1085"/>
    <trip id="831" depart="2493.00" from="-819" to="-330"/>
    <trip id="833" depart="2499.00" from="330" to="1085"/>
    <trip id="836" depart="2508.00" from="330" to="819"/>
    <trip id="837" depart="2511.00" from="-819" to="1085"/>
    <trip id="838" depart="2514.00" from="-833" to="-330"/>
    <trip id="839" depart="2517.00" from="-833" to="-330"/>
    <trip id="840" depart="2520.00" from="-833" to="819"/>
    <trip id="841" depart="2523.00" from="-819" to="833"/>
    <trip id="847" depart="2541.00" from="-833" to="-330"/>
    <trip id="848" depart="2544.00" from="-1085" to="-833"/>
    <trip id="850" depart="2550.00" from="330" to="1085"/>
    <trip id="854" depart="2562.00" from="-819" to="833"/>