<?xml version="1.0" encoding="UTF-8"?>

<!-- generated on 2025-03-14 13:28:40.707927 by randomTrips.py v1_22_0+0449-9311ec3459f
<configuration>
    <net-file value="random_grid_9.net.xml"/>
    <output-trip-file value="random_grid_9_heavy.trips.xml"/>
    <validate value="True"/>
    <period value="2.0"/>
</configuration>
-->

<!-- generated on 2025-03-14 13:28:40 by Eclipse SUMO duarouter Version v1_22_0+0449-9311ec3459f
<duarouterConfiguration xmlns:xsi="http://www.w3.org/2001/XMLSchema-instance" xsi:noNamespaceSchemaLocation="http://sumo.dlr.de/xsd/duarouterConfiguration.xsd">

    <input>
        <net-file value="random_grid_9.net.xml"/>
        <route-files value="random_grid_9_heavy.trips.xml"/>
    </input>

    <output>
        <output-file value="random_grid_9_heavy.trips.xml.tmp"/>
        <alternatives-output value="NUL"/>
        <write-trips value="true"/>
    </output>

    <time>
        <begin value="0.0"/>
        <end value="3600.0"/>
    </time>

    <report>
        <no-warnings value="true"/>
        <ignore-errors value="true"/>
        <no-step-log value="true"/>
    </report>

</duarouterConfiguration>
-->

<routes xmlns:xsi="http://www.w3.org/2001/XMLSchema-instance" xsi:noNamespaceSchemaLocation="http://sumo.dlr.de/xsd/routes_file.xsd">
    <trip id="2" depart="4.00" from="330" to="819"/>
    <trip id="4" depart="8.00" from="-833" to="-330"/>
    <trip id="5" depart="10.00" from="-819" to="1085"/>
    <trip id="6" depart="12.00" from="-1085" to="-330"/>
    <trip id="7" depart="14.00" from="330" to="1085"/>
    <trip id="8" depart="16.00" from="-819" to="1085"/>
    <trip id="11" depart="22.00" from="-819" to="-330"/>
    <trip id="13" depart="26.00" from="-1085" to="-330"/>
    <trip id="17" depart="34.00" from="-819" to="1085"/>
    <trip id="19" depart="38.00" from="833" to="1085"/>
    <trip id="22" depart="44.00" from="-1085" to="-833"/>
    <trip id="23" depart="46.00" from="-1085" to="-833"/>
    <trip id="26" depart="52.00" from="-819" to="833"/>
    <trip id="27" depart="54.00" from="330" to="819"/>
    <trip id="28" depart="56.00" from="-1085" to="819"/>
    <trip id="29" depart="58.00" from="-1085" to="-833"/>
    <trip id="31" depart="62.00" from="-833" to="819"/>
    <trip id="33" depart="66.00" from="-819" to="-330"/>
    <trip id="35" depart="70.00" from="-819" to="833"/>
    <trip id="38" depart="76.00" from="833" to="1085"/>
    <trip id="40" depart="80.00" from="-833" to="-833"/>
    <trip id="43" depart="86.00" from="833" to="1085"/>
    <trip id="44" depart="88.00" from="-1085" to="-330"/>
    <trip id="45" depart="90.00" from="-1085" to="819"/>
    <trip id="46" depart="92.00" from="330" to="1085"/>
    <trip id="47" depart="94.00" from="-1085" to="-833"/>
    <trip id="48" depart="96.00" from="833" to="1085"/>
    <trip id="49" depart="98.00" from="833" to="833"/>
    <trip id="50" depart="100.00" from="-1085" to="819"/>
    <trip id="51" depart="102.00" from="330" to="1085"/>
    <trip id="56" depart="112.00" from="-833" to="-330"/>
    <trip id="57" depart="114.00" from="833" to="833"/>
    <trip id="60" depart="120.00" from="330" to="1085"/>
    <trip id="61" depart="122.00" from="330" to="1085"/>
    <trip id="62" depart="124.00" from="-1085" to="-833"/>
    <trip id="64" depart="128.00" from="833" to="833"/>
    <trip id="65" depart="130.00" from="-819" to="-330"/>
    <trip id="66" depart="132.00" from="833" to="833"/>
    <trip id="68" depart="136.00" from="-1085" to="819"/>
    <trip id="71" depart="142.00" from="-819" to="833"/>
    <trip id="72" depart="144.00" from="-833" to="-833"/>
    <trip id="73" depart="146.00" from="-833" to="819"/>
    <trip id="77" depart="154.00" from="-1085" to="-833"/>
    <trip id="78" depart="156.00" from="-819" to="1085"/>
    <trip id="80" depart="160.00" from="-1085" to="819"/>
    <trip id="81" depart="162.00" from="-819" to="833"/>
    <trip id="84" depart="168.00" from="-819" to="-330"/>
    <trip id="85" depart="170.00" from="833" to="1085"/>
    <trip id="86" depart="172.00" from="-833" to="819"/>
    <trip id="90" depart="180.00" from="330" to="819"/>
    <trip id="92" depart="184.00" from="-833" to="-833"/>
    <trip id="95" depart="190.00" from="-833" to="-833"/>
    <trip id="96" depart="192.00" from="-819" to="833"/>
    <trip id="98" depart="196.00" from="-833" to="-330"/>
    <trip id="99" depart="198.00" from="833" to="833"/>
    <trip id="100" depart="200.00" from="833" to="833"/>
    <trip id="102" depart="204.00" from="-833" to="-833"/>
    <trip id="103" depart="206.00" from="-833" to="-330"/>
    <trip id="104" depart="208.00" from="-819" to="833"/>
    <trip id="107" depart="214.00" from="833" to="833"/>
    <trip id="108" depart="216.00" from="-833" to="819"/>
    <trip id="109" depart="218.00" from="-1085" to="-833"/>
    <trip id="110" depart="220.00" from="833" to="1085"/>
    <trip id="111" depart="222.00" from="-833" to="819"/>
    <trip id="115" depart="230.00" from="-1085" to="-330"/>
    <trip id="116" depart="232.00" from="-833" to="819"/>
    <trip id="117" depart="234.00" from="-819" to="-330"/>
    <trip id="119" depart="238.00" from="-833" to="819"/>
    <trip id="127" depart="254.00" from="833" to="833"/>
    <trip id="128" depart="256.00" from="-1085" to="-833"/>
    <trip id="129" depart="258.00" from="-819" to="833"/>
    <trip id="130" depart="260.00" from="833" to="833"/>
    <trip id="131" depart="262.00" from="-819" to="-330"/>
    <trip id="133" depart="266.00" from="330" to="833"/>
    <trip id="136" depart="272.00" from="330" to="833"/>
    <trip id="137" depart="274.00" from="-1085" to="-330"/>
    <trip id="144" depart="288.00" from="-833" to="-833"/>
    <trip id="145" depart="290.00" from="-1085" to="819"/>
    <trip id="147" depart="294.00" from="330" to="1085"/>
    <trip id="148" depart="296.00" from="-833" to="-330"/>
    <trip id="150" depart="300.00" from="833" to="1085"/>
    <trip id="151" depart="302.00" from="833" to="1085"/>
    <trip id="152" depart="304.00" from="-1085" to="-330"/>
    <trip id="153" depart="306.00" from="-819" to="833"/>
    <trip id="154" depart="308.00" from="330" to="833"/>
    <trip id="156" depart="312.00" from="-819" to="-330"/>
    <trip id="157" depart="314.00" from="330" to="833"/>
    <trip id="158" depart="316.00" from="-833" to="819"/>
    <trip id="160" depart="320.00" from="833" to="833"/>
    <trip id="161" depart="322.00" from="833" to="833"/>
    <trip id="162" depart="324.00" from="-1085" to="819"/>
    <trip id="163" depart="326.00" from="-819" to="833"/>
    <trip id="164" depart="328.00" from="833" to="833"/>
    <trip id="167" depart="334.00" from="833" to="833"/>
    <trip id="168" depart="336.00" from="-819" to="833"/>
    <trip id="169" depart="338.00" from="-833" to="-833"/>
    <trip id="171" depart="342.00" from="-1085" to="-330"/>
    <trip id="172" depart="344.00" from="-819" to="833"/>
    <trip id="175" depart="350.00" from="833" to="1085"/>
    <trip id="181" depart="362.00" from="330" to="1085"/>
    <trip id="182" depart="364.00" from="-819" to="1085"/>
    <trip id="185" depart="370.00" from="-833" to="819"/>
    <trip id="186" depart="372.00" from="330" to="819"/>
    <trip id="187" depart="374.00" from="-819" to="-330"/>
    <trip id="189" depart="378.00" from="-819" to="833"/>
    <trip id="191" depart="382.00" from="-819" to="1085"/>
    <trip id="192" depart="384.00" from="-833" to="-833"/>
    <trip id="196" depart="392.00" from="-819" to="1085"/>
    <trip id="197" depart="394.00" from="-1085" to="-833"/>
    <trip id="199" depart="398.00" from="330" to="1085"/>
    <trip id="200" depart="400.00" from="-833" to="-833"/>
    <trip id="207" depart="414.00" from="-1085" to="-330"/>
    <trip id="208" depart="416.00" from="-819" to="1085"/>
    <trip id="210" depart="420.00" from="-833" to="819"/>
    <trip id="211" depart="422.00" from="-1085" to="819"/>
    <trip id="212" depart="424.00" from="-833" to="-833"/>
    <trip id="214" depart="428.00" from="330" to="819"/>
    <trip id="217" depart="434.00" from="-833" to="-330"/>
    <trip id="218" depart="436.00" from="-819" to="833"/>
    <trip id="220" depart="440.00" from="330" to="833"/>
    <trip id="223" depart="446.00" from="330" to="1085"/>
    <trip id="224" depart="448.00" from="833" to="1085"/>
    <trip id="226" depart="452.00" from="-833" to="-833"/>
    <trip id="228" depart="456.00" from="330" to="1085"/>
    <trip id="230" depart="460.00" from="-1085" to="-833"/>
    <trip id="232" depart="464.00" from="-833" to="-330"/>
    <trip id="236" depart="472.00" from="-833" to="-833"/>
    <trip id="238" depart="476.00" from="-833" to="819"/>
    <trip id="240" depart="480.00" from="-819" to="-330"/>
    <trip id="242" depart="484.00" from="833" to="833"/>
    <trip id="243" depart="486.00" from="-833" to="819"/>
    <trip id="244" depart="488.00" from="-833" to="819"/>
    <trip id="246" depart="492.00" from="-833" to="-330"/>
    <trip id="248" depart="496.00" from="-833" to="-330"/>
    <trip id="249" depart="498.00" from="-833" to="-330"/>
    <trip id="251" depart="502.00" from="-819" to="1085"/>
    <trip id="252" depart="504.00" from="-1085" to="819"/>
    <trip id="254" depart="508.00" from="-1085" to="-833"/>
    <trip id="257" depart="514.00" from="330" to="833"/>
    <trip id="258" depart="516.00" from="-819" to="-330"/>
    <trip id="261" depart="522.00" from="330" to="819"/>
    <trip id="262" depart="524.00" from="330" to="819"/>
    <trip id="264" depart="528.00" from="-1085" to="-330"/>
    <trip id="265" depart="530.00" from="-1085" to="819"/>
    <trip id="266" depart="532.00" from="-833" to="-833"/>
    <trip id="267" depart="534.00" from="330" to="819"/>
    <trip id="268" depart="536.00" from="-1085" to="819"/>
    <trip id="270" depart="540.00" from="833" to="833"/>
    <trip id="271" depart="542.00" from="-1085" to="-330"/>
    <trip id="275" depart="550.00" from="330" to="819"/>
    <trip id="276" depart="552.00" from="-1085" to="819"/>
    <trip id="280" depart="560.00" from="-833" to="-833"/>
    <trip id="281" depart="562.00" from="-833" to="-833"/>
    <trip id="282" depart="564.00" from="833" to="833"/>
    <trip id="284" depart="568.00" from="330" to="833"/>
    <trip id="285" depart="570.00" from="330" to="1085"/>
    <trip id="286" depart="572.00" from="330" to="833"/>
    <trip id="287" depart="574.00" from="-819" to="833"/>
    <trip id="289" depart="578.00" from="-833" to="819"/>
    <trip id="290" depart="580.00" from="-819" to="833"/>
    <trip id="293" depart="586.00" from="-833" to="819"/>
    <trip id="294" depart="588.00" from="-819" to="-330"/>
    <trip id="297" depart="594.00" from="-819" to="833"/>
    <trip id="300" depart="600.00" from="-1085" to="819"/>
    <trip id="301" depart="602.00" from="-833" to="819"/>
    <trip id="302" depart="604.00" from="330" to="819"/>
    <trip id="303" depart="606.00" from="-833" to="819"/>
    <trip id="304" depart="608.00" from="-1085" to="-833"/>
    <trip id="310" depart="620.00" from="-819" to="-330"/>
    <trip id="311" depart="622.00" from="-1085" to="-330"/>
    <trip id="312" depart="624.00" from="-833" to="819"/>
    <trip id="313" depart="626.00" from="-1085" to="-833"/>
    <trip id="314" depart="628.00" from="-833" to="819"/>
    <trip id="315" depart="630.00" from="833" to="1085"/>
    <trip id="316" depart="632.00" from="-819" to="-330"/>
    <trip id="317" depart="634.00" from="-1085" to="-833"/>
    <trip id="318" depart="636.00" from="-1085" to="-330"/>
    <trip id="319" depart="638.00" from="-833" to="-833"/>
    <trip id="320" depart="640.00" from="833" to="1085"/>
    <trip id="322" depart="644.00" from="833" to="1085"/>
    <trip id="323" depart="646.00" from="833" to="1085"/>
    <trip id="325" depart="650.00" from="-1085" to="-330"/>
    <trip id="326" depart="652.00" from="833" to="1085"/>
    <trip id="327" depart="654.00" from="833" to="1085"/>
    <trip id="328" depart="656.00" from="-1085" to="819"/>
    <trip id="329" depart="658.00" from="-1085" to="-330"/>
    <trip id="330" depart="660.00" from="-833" to="-833"/>
    <trip id="332" depart="664.00" from="330" to="819"/>
    <trip id="337" depart="674.00" from="330" to="819"/>
    <trip id="338" depart="676.00" from="330" to="833"/>
    <trip id="341" depart="682.00" from="-1085" to="-330"/>
    <trip id="343" depart="686.00" from="-833" to="-833"/>
    <trip id="345" depart="690.00" from="330" to="1085"/>
    <trip id="346" depart="692.00" from="330" to="833"/>
    <trip id="347" depart="694.00" from="330" to="819"/>
    <trip id="348" depart="696.00" from="330" to="833"/>
    <trip id="350" depart="700.00" from="330" to="833"/>
    <trip id="352" depart="704.00" from="-1085" to="-833"/>
    <trip id="353" depart="706.00" from="330" to="1085"/>
    <trip id="354" depart="708.00" from="-819" to="-330"/>
    <trip id="355" depart="710.00" from="330" to="819"/>
    <trip id="356" depart="712.00" from="833" to="1085"/>
    <trip id="357" depart="714.00" from="-833" to="-330"/>
    <trip id="361" depart="722.00" from="833" to="1085"/>
    <trip id="362" depart="724.00" from="833" to="833"/>
    <trip id="364" depart="728.00" from="-1085" to="819"/>
    <trip id="365" depart="730.00" from="-833" to="819"/>
    <trip id="367" depart="734.00" from="-833" to="819"/>
    <trip id="368" depart="736.00" from="-833" to="-330"/>
    <trip id="370" depart="740.00" from="330" to="833"/>
    <trip id="372" depart="744.00" from="-819" to="833"/>
    <trip id="373" depart="746.00" from="833" to="1085"/>
    <trip id="374" depart="748.00" from="-833" to="-833"/>
    <trip id="375" depart="750.00" from="-819" to="833"/>
    <trip id="379" depart="758.00" from="-1085" to="-833"/>
    <trip id="380" depart="760.00" from="330" to="819"/>
    <trip id="383" depart="766.00" from="-833" to="819"/>
    <trip id="387" depart="774.00" from="-833" to="-330"/>
    <trip id="388" depart="776.00" from="833" to="833"/>
    <trip id="389" depart="778.00" from="-833" to="-330"/>
    <trip id="390" depart="780.00" from="833" to="1085"/>
    <trip id="391" depart="782.00" from="330" to="1085"/>
    <trip id="392" depart="784.00" from="-819" to="833"/>
    <trip id="394" depart="788.00" from="-833" to="-833"/>
    <trip id="395" depart="790.00" from="833" to="1085"/>
    <trip id="396" depart="792.00" from="833" to="833"/>
    <trip id="402" depart="804.00" from="-833" to="-330"/>
    <trip id="403" depart="806.00" from="-833" to="-833"/>
    <trip id="405" depart="810.00" from="-833" to="-833"/>
    <trip id="406" depart="812.00" from="-1085" to="819"/>
    <trip id="407" depart="814.00" from="-833" to="-833"/>
    <trip id="409" depart="818.00" from="330" to="819"/>
    <trip id="411" depart="822.00" from="330" to="833"/>
    <trip id="412" depart="824.00" from="833" to="1085"/>
    <trip id="415" depart="830.00" from="833" to="1085"/>
    <trip id="417" depart="834.00" from="330" to="1085"/>
    <trip id="421" depart="842.00" from="330" to="833"/>
    <trip id="422" depart="844.00" from="833" to="833"/>
    <trip id="424" depart="848.00" from="330" to="819"/>
    <trip id="426" depart="852.00" from="-1085" to="819"/>
    <trip id="427" depart="854.00" from="833" to="833"/>
    <trip id="428" depart="856.00" from="330" to="1085"/>
    <trip id="429" depart="858.00" from="-1085" to="819"/>
    <trip id="430" depart="860.00" from="833" to="1085"/>
    <trip id="431" depart="862.00" from="330" to="833"/>
    <trip id="432" depart="864.00" from="-1085" to="819"/>
    <trip id="435" depart="870.00" from="-833" to="819"/>
    <trip id="436" depart="872.00" from="-1085" to="-330"/>
    <trip id="438" depart="876.00" from="-819" to="833"/>
    <trip id="444" depart="888.00" from="-819" to="1085"/>
    <trip id="445" depart="890.00" from="330" to="1085"/>
    <trip id="446" depart="892.00" from="-819" to="833"/>
    <trip id="447" depart="894.00" from="-1085" to="-833"/>
    <trip id="448" depart="896.00" from="-833" to="-833"/>
    <trip id="452" depart="904.00" from="-819" to="1085"/>
    <trip id="453" depart="906.00" from="330" to="819"/>
    <trip id="454" depart="908.00" from="-1085" to="819"/>
    <trip id="458" depart="916.00" from="330" to="819"/>
    <trip id="459" depart="918.00" from="330" to="819"/>
    <trip id="460" depart="920.00" from="330" to="833"/>
    <trip id="461" depart="922.00" from="330" to="833"/>
    <trip id="466" depart="932.00" from="-1085" to="-330"/>
    <trip id="470" depart="940.00" from="833" to="1085"/>
    <trip id="472" depart="944.00" from="-819" to="-330"/>
    <trip id="474" depart="948.00" from="833" to="833"/>
    <trip id="475" depart="950.00" from="330" to="833"/>
    <trip id="476" depart="952.00" from="833" to="833"/>
    <trip id="479" depart="958.00" from="-833" to="819"/>
    <trip id="480" depart="960.00" from="330" to="1085"/>
    <trip id="481" depart="962.00" from="833" to="833"/>
    <trip id="482" depart="964.00" from="-1085" to="-833"/>
    <trip id="485" depart="970.00" from="-819" to="-330"/>
    <trip id="486" depart="972.00" from="833" to="833"/>
    <trip id="487" depart="974.00" from="-819" to="1085"/>
    <trip id="489" depart="978.00" from="-819" to="1085"/>
    <trip id="492" depart="984.00" from="330" to="819"/>
    <trip id="493" depart="986.00" from="833" to="1085"/>
    <trip id="495" depart="990.00" from="-833" to="-330"/>
    <trip id="498" depart="996.00" from="-819" to="1085"/>
    <trip id="499" depart="998.00" from="833" to="833"/>
    <trip id="500" depart="1000.00" from="-1085" to="819"/>
    <trip id="503" depart="1006.00" from="-1085" to="-330"/>
    <trip id="504" depart="1008.00" from="833" to="1085"/>
    <trip id="505" depart="1010.00" from="330" to="819"/>
    <trip id="506" depart="1012.00" from="-833" to="-330"/>
    <trip id="509" depart="1018.00" from="-1085" to="819"/>
    <trip id="514" depart="1028.00" from="-1085" to="-330"/>
    <trip id="515" depart="1030.00" from="-819" to="-330"/>
    <trip id="517" depart="1034.00" from="-1085" to="819"/>
    <trip id="519" depart="1038.00" from="-1085" to="-330"/>
    <trip id="520" depart="1040.00" from="330" to="1085"/>
    <trip id="521" depart="1042.00" from="330" to="1085"/>
    <trip id="522" depart="1044.00" from="330" to="1085"/>
    <trip id="525" depart="1050.00" from="330" to="833"/>
    <trip id="529" depart="1058.00" from="330" to="1085"/>
    <trip id="531" depart="1062.00" from="-1085" to="819"/>
    <trip id="532" depart="1064.00" from="-1085" to="-833"/>
    <trip id="533" depart="1066.00" from="330" to="1085"/>
    <trip id="534" depart="1068.00" from="-819" to="833"/>
    <trip id="537" depart="1074.00" from="330" to="833"/>
    <trip id="538" depart="1076.00" from="330" to="819"/>
    <trip id="540" depart="1080.00" from="-833" to="-833"/>
    <trip id="541" depart="1082.00" from="-819" to="1085"/>
    <trip id="542" depart="1084.00" from="-833" to="-330"/>
    <trip id="543" depart="1086.00" from="-833" to="819"/>
    <trip id="544" depart="1088.00" from="-819" to="-330"/>
    <trip id="547" depart="1094.00" from="-1085" to="819"/>
    <trip id="548" depart="1096.00" from="833" to="1085"/>
    <trip id="550" depart="1100.00" from="-819" to="-330"/>
    <trip id="552" depart="1104.00" from="330" to="833"/>
    <trip id="553" depart="1106.00" from="330" to="833"/>
    <trip id="555" depart="1110.00" from="-833" to="-833"/>
    <trip id="560" depart="1120.00" from="833" to="833"/>
    <trip id="563" depart="1126.00" from="833" to="833"/>
    <trip id="564" depart="1128.00" from="-819" to="-330"/>
    <trip id="566" depart="1132.00" from="-819" to="-330"/>
    <trip id="567" depart="1134.00" from="833" to="1085"/>
    <trip id="568" depart="1136.00" from="-833" to="-330"/>
    <trip id="571" depart="1142.00" from="-833" to="-833"/>
    <trip id="573" depart="1146.00" from="330" to="1085"/>
    <trip id="574" depart="1148.00" from="-1085" to="-330"/>
    <trip id="575" depart="1150.00" from="-1085" to="819"/>
    <trip id="577" depart="1154.00" from="330" to="1085"/>
    <trip id="578" depart="1156.00" from="-833" to="-833"/>
    <trip id="580" depart="1160.00" from="-833" to="-833"/>
    <trip id="581" depart="1162.00" from="330" to="1085"/>
    <trip id="583" depart="1166.00" from="-819" to="1085"/>
    <trip id="584" depart="1168.00" from="-1085" to="-833"/>
    <trip id="585" depart="1170.00" from="-819" to="-330"/>
    <trip id="587" depart="1174.00" from="-1085" to="819"/>
    <trip id="588" depart="1176.00" from="-1085" to="-833"/>
    <trip id="589" depart="1178.00" from="330" to="1085"/>
    <trip id="590" depart="1180.00" from="833" to="833"/>
    <trip id="592" depart="1184.00" from="-1085" to="-330"/>
    <trip id="593" depart="1186.00" from="833" to="833"/>
    <trip id="595" depart="1190.00" from="330" to="1085"/>
    <trip id="596" depart="1192.00" from="-1085" to="-330"/>
    <trip id="597" depart="1194.00" from="-819" to="833"/>
    <trip id="598" depart="1196.00" from="330" to="833"/>
    <trip id="607" depart="1214.00" from="330" to="833"/>
    <trip id="609" depart="1218.00" from="-1085" to="-330"/>
    <trip id="610" depart="1220.00" from="330" to="819"/>
    <trip id="612" depart="1224.00" from="330" to="1085"/>
    <trip id="613" depart="1226.00" from="330" to="819"/>
    <trip id="615" depart="1230.00" from="-833" to="819"/>
    <trip id="616" depart="1232.00" from="330" to="833"/>
    <trip id="621" depart="1242.00" from="-819" to="1085"/>
    <trip id="626" depart="1252.00" from="-833" to="819"/>
    <trip id="627" depart="1254.00" from="833" to="1085"/>
    <trip id="629" depart="1258.00" from="-819" to="1085"/>
    <trip id="630" depart="1260.00" from="-1085" to="-330"/>
    <trip id="633" depart="1266.00" from="-833" to="-330"/>
    <trip id="634" depart="1268.00" from="-819" to="1085"/>
    <trip id="636" depart="1272.00" from="-1085" to="-833"/>
    <trip id="637" depart="1274.00" from="-819" to="1085"/>
    <trip id="638" depart="1276.00" from="-819" to="1085"/>
    <trip id="639" depart="1278.00" from="330" to="819"/>
    <trip id="640" depart="1280.00" from="-1085" to="-330"/>
    <trip id="642" depart="1284.00" from="330" to="819"/>
    <trip id="643" depart="1286.00" from="833" to="833"/>
    <trip id="644" depart="1288.00" from="-819" to="1085"/>
    <trip id="645" depart="1290.00" from="-1085" to="-833"/>
    <trip id="647" depart="1294.00" from="-819" to="1085"/>
    <trip id="652" depart="1304.00" from="330" to="1085"/>
    <trip id="653" depart="1306.00" from="330" to="1085"/>
    <trip id="655" depart="1310.00" from="-1085" to="-833"/>
    <trip id="656" depart="1312.00" from="833" to="1085"/>
    <trip id="657" depart="1314.00" from="-819" to="-330"/>
    <trip id="659" depart="1318.00" from="-1085" to="819"/>
    <trip id="660" depart="1320.00" from="833" to="833"/>
    <trip id="661" depart="1322.00" from="-1085" to="-833"/>
    <trip id="663" depart="1326.00" from="-819" to="-330"/>
    <trip id="668" depart="1336.00" from="-833" to="-833"/>
    <trip id="669" depart="1338.00" from="330" to="1085"/>
    <trip id="670" depart="1340.00" from="-833" to="-833"/>
    <trip id="671" depart="1342.00" from="833" to="1085"/>
    <trip id="673" depart="1346.00" from="833" to="833"/>
    <trip id="674" depart="1348.00" from="-833" to="-833"/>
    <trip id="675" depart="1350.00" from="-819" to="1085"/>
    <trip id="676" depart="1352.00" from="833" to="833"/>
    <trip id="679" depart="1358.00" from="833" to="1085"/>
    <trip id="685" depart="1370.00" from="-819" to="1085"/>
    <trip id="686" depart="1372.00" from="-819" to="-330"/>
    <trip id="688" depart="1376.00" from="-819" to="833"/>
    <trip id="689" depart="1378.00" from="-819" to="-330"/>
    <trip id="690" depart="1380.00" from="833" to="833"/>
    <trip id="691" depart="1382.00" from="330" to="819"/>
    <trip id="692" depart="1384.00" from="-1085" to="-833"/>
    <trip id="694" depart="1388.00" from="-1085" to="819"/>
    <trip id="695" depart="1390.00" from="-833" to="-330"/>
    <trip id="696" depart="1392.00" from="-1085" to="-833"/>
    <trip id="697" depart="1394.00" from="833" to="1085"/>
    <trip id="698" depart="1396.00" from="330" to="1085"/>
    <trip id="699" depart="1398.00" from="-1085" to="-833"/>
    <trip id="700" depart="1400.00" from="-819" to="-330"/>
    <trip id="701" depart="1402.00" from="-833" to="819"/>
    <trip id="702" depart="1404.00" from="-833" to="-330"/>
    <trip id="703" depart="1406.00" from="833" to="1085"/>
    <trip id="705" depart="1410.00" from="-819" to="-330"/>
    <trip id="706" depart="1412.00" from="-833" to="819"/>
    <trip id="707" depart="1414.00" from="-819" to="1085"/>
    <trip id="711" depart="1422.00" from="833" to="1085"/>
    <trip id="712" depart="1424.00" from="-819" to="1085"/>
    <trip id="713" depart="1426.00" from="330" to="833"/>
    <trip id="714" depart="1428.00" from="-819" to="-330"/>
    <trip id="716" depart="1432.00" from="330" to="819"/>
    <trip id="717" depart="1434.00" from="330" to="819"/>
    <trip id="718" depart="1436.00" from="-819" to="-330"/>
    <trip id="720" depart="1440.00" from="-1085" to="819"/>
    <trip id="721" depart="1442.00" from="-833" to="819"/>
    <trip id="722" depart="1444.00" from="330" to="833"/>
    <trip id="723" depart="1446.00" from="-1085" to="819"/>
    <trip id="724" depart="1448.00" from="-833" to="-833"/>
    <trip id="725" depart="1450.00" from="-1085" to="-330"/>
    <trip id="728" depart="1456.00" from="-833" to="-833"/>
    <trip id="732" depart="1464.00" from="-1085" to="-833"/>
    <trip id="735" depart="1470.00" from="833" to="1085"/>
    <trip id="739" depart="1478.00" from="330" to="833"/>
    <trip id="740" depart="1480.00" from="-833" to="-833"/>
    <trip id="741" depart="1482.00" from="-1085" to="819"/>
    <trip id="743" depart="1486.00" from="-833" to="819"/>
    <trip id="744" depart="1488.00" from="-819" to="-330"/>
    <trip id="747" depart="1494.00" from="833" to="833"/>
    <trip id="748" depart="1496.00" from="-1085" to="819"/>
    <trip id="749" depart="1498.00" from="-819" to="833"/>
    <trip id="750" depart="1500.00" from="330" to="833"/>
    <trip id="751" depart="1502.00" from="-1085" to="819"/>
    <trip id="753" depart="1506.00" from="-1085" to="819"/>
    <trip id="755" depart="1510.00" from="-833" to="819"/>
    <trip id="756" depart="1512.00" from="330" to="833"/>
    <trip id="760" depart="1520.00" from="-819" to="-330"/>
    <trip id="761" depart="1522.00" from="330" to="1085"/>
    <trip id="762" depart="1524.00" from="-819" to="1085"/>
    <trip id="765" depart="1530.00" from="-819" to="833"/>
    <trip id="766" depart="1532.00" from="-833" to="-330"/>
    <trip id="767" depart="1534.00" from="833" to="1085"/>
    <trip id="768" depart="1536.00" from="833" to="1085"/>
    <trip id="769" depart="1538.00" from="-1085" to="819"/>
    <trip id="771" depart="1542.00" from="-819" to="-330"/>
    <trip id="775" depart="1550.00" from="330" to="1085"/>
    <trip id="776" depart="1552.00" from="-1085" to="-833"/>
    <trip id="777" depart="1554.00" from="-1085" to="819"/>
    <trip id="779" depart="1558.00" from="-819" to="833"/>
    <trip id="780" depart="1560.00" from="-833" to="819"/>
    <trip id="781" depart="1562.00" from="-1085" to="-833"/>
    <trip id="783" depart="1566.00" from="-833" to="819"/>
    <trip id="786" depart="1572.00" from="-833" to="819"/>
    <trip id="787" depart="1574.00" from="-819" to="833"/>
    <trip id="788" depart="1576.00" from="330" to="819"/>
    <trip id="791" depart="1582.00" from="-1085" to="-330"/>
    <trip id="792" depart="1584.00" from="-1085" to="-330"/>
    <trip id="794" depart="1588.00" from="-819" to="833"/>
    <trip id="795" depart="1590.00" from="833" to="833"/>
    <trip id="797" depart="1594.00" from="-833" to="-330"/>
    <trip id="798" depart="1596.00" from="-819" to="1085"/>
    <trip id="799" depart="1598.00" from="-833" to="-330"/>
    <trip id="801" depart="1602.00" from="330" to="819"/>
    <trip id="802" depart="1604.00" from="330" to="833"/>
    <trip id="804" depart="1608.00" from="-1085" to="-330"/>
    <trip id="805" depart="1610.00" from="330" to="1085"/>
    <trip id="806" depart="1612.00" from="330" to="819"/>
    <trip id="807" depart="1614.00" from="-833" to="819"/>
    <trip id="808" depart="1616.00" from="-833" to="819"/>
    <trip id="809" depart="1618.00" from="-819" to="833"/>
    <trip id="812" depart="1624.00" from="-1085" to="-330"/>
    <trip id="816" depart="1632.00" from="330" to="833"/>
    <trip id="818" depart="1636.00" from="-819" to="1085"/>
    <trip id="819" depart="1638.00" from="-819" to="1085"/>
    <trip id="821" depart="1642.00" from="-1085" to="-833"/>
    <trip id="823" depart="1646.00" from="-819" to="833"/>
    <trip id="824" depart="1648.00" from="-1085" to="-833"/>
    <trip id="825" depart="1650.00" from="-833" to="-833"/>
    <trip id="826" depart="1652.00" from="330" to="1085"/>
    <trip id="828" depart="1656.00" from="-819" to="-330"/>
    <trip id="829" depart="1658.00" from="833" to="1085"/>
    <trip id="831" depart="1662.00" from="-819" to="-330"/>
    <trip id="833" depart="1666.00" from="330" to="1085"/>
    <trip id="836" depart="1672.00" from="330" to="819"/>
    <trip id="837" depart="1674.00" from="-819" to="1085"/>
    <trip id="838" depart="1676.00" from="-833" to="-330"/>
    <trip id="839" depart="1678.00" from="-833" to="-330"/>
    <trip id="840" depart="1680.00" from="-833" to="819"/>
    <trip id="841" depart="1682.00" from="-819" to="833"/>
    <trip id="847" depart="1694.00" from="-833" to="-330"/>
    <trip id="848" depart="1696.00" from="-1085" to="-833"/>
    <trip id="850" depart="1700.00" from="330" to="1085"/>
    <trip id="854" depart="1708.00" from="-819" to="833"/>
    <trip id="855" depart="1710.00" from="-833" to="819"/>
    <trip id="856" depart="1712.00" from="-819" to="833"/>