<?xml version="1.0" encoding="UTF-8"?>

<!-- generated on 2025-03-14 13:35:45.505123 by randomTrips.py v1_19_0+1770-8bb5c24c187
<configuration>
    <net-file value="random_grid_6.net.xml"/>
    <output-trip-file value="random_grid_6_medium.trips.xml"/>
    <validate value="True"/>
    <period value="3.0"/>
</configuration>
-->

<!-- generated on 2025-03-14 13:35:45 by Eclipse SUMO duarouter Version v1_19_0+1770-8bb5c24c187
<configuration xmlns:xsi="http://www.w3.org/2001/XMLSchema-instance" xsi:noNamespaceSchemaLocation="http://sumo.dlr.de/xsd/duarouterConfiguration.xsd">

    <input>
        <net-file value="random_grid_6.net.xml"/>
        <route-files value="random_grid_6_medium.trips.xml"/>
    </input>

    <output>
        <output-file value="random_grid_6_medium.trips.xml.tmp"/>
        <alternatives-output value="NUL"/>
        <write-trips value="true"/>
    </output>

    <time>
        <begin value="0.0"/>
        <end value="3600.0"/>
    </time>

    <report>
        <no-warnings value="true"/>
        <ignore-errors value="true"/>
        <no-step-log value="true"/>
    </report>

</configuration>
-->

<routes xmlns:xsi="http://www.w3.org/2001/XMLSchema-instance" xsi:noNamespaceSchemaLocation="http://sumo.dlr.de/xsd/routes_file.xsd">
    <trip id="0" depart="0.00" from="-315" to="-270"/>
    <trip id="1" depart="3.00" from="-305" to="-305"/>
    <trip id="2" depart="6.00" from="270" to="307"/>
    <trip id="4" depart="12.00" from="-307" to="-270"/>
    <trip id="6" depart="18.00" from="-1907" to="-305"/>
    <trip id="7" depart="21.00" from="-315" to="305"/>
    <trip id="10" depart="30.00" from="270" to="307"/>
    <trip id="11" depart="33.00" from="-307" to="-270"/>
    <trip id="12" depart="36.00" from="305" to="1907"/>
    <trip id="13" depart="39.00" from="-1907" to="-270"/>
    <trip id="14" depart="42.00" from="305" to="305"/>
    <trip id="15" depart="45.00" from="270" to="307"/>
    <trip id="17" depart="51.00" from="-307" to="305"/>
    <trip id="18" depart="54.00" from="270" to="305"/>
    <trip id="19" depart="57.00" from="305" to="305"/>
    <trip id="21" depart="63.00" from="-305" to="-305"/>
    <trip id="22" depart="66.00" from="-1907" to="-305"/>
    <trip id="23" depart="69.00" from="-1907" to="-305"/>
    <trip id="24" depart="72.00" from="-315" to="1907"/>
    <trip id="26" depart="78.00" from="-305" to="315"/>
    <trip id="27" depart="81.00" from="-315" to="305"/>
    <trip id="28" depart="84.00" from="-305" to="307"/>
    <trip id="30" depart="90.00" from="305" to="305"/>
    <trip id="31" depart="93.00" from="-315" to="307"/>
    <trip id="33" depart="99.00" from="-305" to="-270"/>
    <trip id="34" depart="102.00" from="-305" to="-305"/>
    <trip id="35" depart="105.00" from="-305" to="315"/>
    <trip id="37" depart="111.00" from="-315" to="1907"/>
    <trip id="38" depart="114.00" from="305" to="1907"/>
    <trip id="39" depart="117.00" from="-305" to="-305"/>
    <trip id="43" depart="129.00" from="305" to="305"/>
    <trip id="44" depart="132.00" from="-1907" to="-270"/>
    <trip id="46" depart="138.00" from="270" to="1907"/>
    <trip id="48" depart="144.00" from="305" to="305"/>
    <trip id="50" depart="150.00" from="-1907" to="307"/>
    <trip id="51" depart="153.00" from="270" to="305"/>
    <trip id="54" depart="162.00" from="-307" to="315"/>
    <trip id="59" depart="177.00" from="-315" to="-270"/>
    <trip id="60" depart="180.00" from="270" to="305"/>
    <trip id="61" depart="183.00" from="270" to="305"/>
    <trip id="62" depart="186.00" from="-1907" to="-305"/>
    <trip id="63" depart="189.00" from="-1907" to="315"/>
    <trip id="65" depart="195.00" from="-305" to="-270"/>
    <trip id="68" depart="204.00" from="-1907" to="307"/>
    <trip id="70" depart="210.00" from="-307" to="305"/>
    <trip id="71" depart="213.00" from="-305" to="315"/>
    <trip id="73" depart="219.00" from="-315" to="307"/>
    <trip id="74" depart="222.00" from="-305" to="-305"/>
    <trip id="75" depart="225.00" from="305" to="305"/>
    <trip id="76" depart="228.00" from="-307" to="305"/>
    <trip id="77" depart="231.00" from="-1907" to="-305"/>
    <trip id="78" depart="234.00" from="-307" to="305"/>
    <trip id="79" depart="237.00" from="-305" to="-305"/>
    <trip id="81" depart="243.00" from="-305" to="315"/>
    <trip id="83" depart="249.00" from="-305" to="307"/>
    <trip id="84" depart="252.00" from="-305" to="-270"/>
    <trip id="85" depart="255.00" from="305" to="305"/>
    <trip id="89" depart="267.00" from="-307" to="1907"/>
    <trip id="90" depart="270.00" from="270" to="307"/>
    <trip id="92" depart="276.00" from="-307" to="1907"/>
    <trip id="96" depart="288.00" from="-305" to="315"/>
    <trip id="97" depart="291.00" from="-307" to="315"/>
    <trip id="98" depart="294.00" from="-315" to="-270"/>
    <trip id="103" depart="309.00" from="-307" to="-270"/>
    <trip id="104" depart="312.00" from="-307" to="315"/>
    <trip id="105" depart="315.00" from="-305" to="307"/>
    <trip id="106" depart="318.00" from="-307" to="1907"/>
    <trip id="108" depart="324.00" from="-315" to="307"/>
    <trip id="109" depart="327.00" from="-1907" to="-305"/>
    <trip id="110" depart="330.00" from="305" to="305"/>
    <trip id="111" depart="333.00" from="-315" to="307"/>
    <trip id="114" depart="342.00" from="-1907" to="315"/>
    <trip id="115" depart="345.00" from="-1907" to="-305"/>
    <trip id="116" depart="348.00" from="-315" to="307"/>
    <trip id="117" depart="351.00" from="-305" to="-270"/>
    <trip id="119" depart="357.00" from="-315" to="305"/>
    <trip id="120" depart="360.00" from="-307" to="305"/>
    <trip id="122" depart="366.00" from="-305" to="307"/>
    <trip id="125" depart="375.00" from="-305" to="307"/>
    <trip id="128" depart="384.00" from="-1907" to="-305"/>
    <trip id="129" depart="387.00" from="-305" to="315"/>
    <trip id="131" depart="393.00" from="-307" to="-270"/>
    <trip id="134" depart="402.00" from="-315" to="-270"/>
    <trip id="137" depart="411.00" from="-1907" to="-270"/>
    <trip id="142" depart="426.00" from="-307" to="315"/>
    <trip id="145" depart="435.00" from="-1907" to="307"/>
    <trip id="147" depart="441.00" from="270" to="305"/>
    <trip id="148" depart="444.00" from="-307" to="-270"/>
    <trip id="149" depart="447.00" from="-1907" to="315"/>
    <trip id="150" depart="450.00" from="305" to="305"/>
    <trip id="151" depart="453.00" from="305" to="305"/>
    <trip id="152" depart="456.00" from="-1907" to="-270"/>
    <trip id="153" depart="459.00" from="-305" to="315"/>
    <trip id="154" depart="462.00" from="270" to="315"/>
    <trip id="156" depart="468.00" from="-305" to="-270"/>
    <trip id="157" depart="471.00" from="270" to="315"/>
    <trip id="158" depart="474.00" from="-307" to="305"/>
    <trip id="159" depart="477.00" from="-1907" to="315"/>
    <trip id="161" depart="483.00" from="270" to="315"/>
    <trip id="162" depart="486.00" from="-1907" to="307"/>
    <trip id="163" depart="489.00" from="-305" to="315"/>
    <trip id="164" depart="492.00" from="270" to="315"/>
    <trip id="168" depart="504.00" from="-305" to="307"/>
    <trip id="171" depart="513.00" from="-1907" to="-305"/>
    <trip id="172" depart="516.00" from="-305" to="315"/>
    <trip id="174" depart="522.00" from="-315" to="1907"/>
    <trip id="175" depart="525.00" from="305" to="305"/>
    <trip id="181" depart="543.00" from="-315" to="305"/>
    <trip id="182" depart="546.00" from="-307" to="305"/>
    <trip id="183" depart="549.00" from="-305" to="307"/>
    <trip id="184" depart="552.00" from="-1907" to="315"/>
    <trip id="185" depart="555.00" from="-315" to="307"/>
    <trip id="186" depart="558.00" from="270" to="307"/>
    <trip id="187" depart="561.00" from="-307" to="-270"/>
    <trip id="189" depart="567.00" from="-305" to="315"/>
    <trip id="195" depart="585.00" from="305" to="305"/>
    <trip id="197" depart="591.00" from="-1907" to="-305"/>
    <trip id="198" depart="594.00" from="-307" to="305"/>
    <trip id="199" depart="597.00" from="-315" to="1907"/>
    <trip id="201" depart="603.00" from="-307" to="315"/>
    <trip id="204" depart="612.00" from="-315" to="1907"/>
    <trip id="205" depart="615.00" from="270" to="307"/>
    <trip id="207" depart="621.00" from="-305" to="-270"/>
    <trip id="210" depart="630.00" from="-307" to="305"/>
    <trip id="211" depart="633.00" from="-305" to="307"/>
    <trip id="213" depart="639.00" from="-315" to="-270"/>
    <trip id="214" depart="642.00" from="270" to="307"/>
    <trip id="216" depart="648.00" from="-305" to="315"/>
    <trip id="217" depart="651.00" from="-315" to="-270"/>
    <trip id="218" depart="654.00" from="-305" to="315"/>
    <trip id="220" depart="660.00" from="270" to="315"/>
    <trip id="222" depart="666.00" from="305" to="305"/>
    <trip id="223" depart="669.00" from="270" to="305"/>
    <trip id="224" depart="672.00" from="270" to="305"/>
    <trip id="228" depart="684.00" from="270" to="305"/>
    <trip id="230" depart="690.00" from="-1907" to="-305"/>
    <trip id="231" depart="693.00" from="-305" to="-305"/>
    <trip id="232" depart="696.00" from="-315" to="-270"/>
    <trip id="233" depart="699.00" from="-305" to="307"/>
    <trip id="235" depart="705.00" from="-307" to="305"/>
    <trip id="237" depart="711.00" from="-307" to="315"/>
    <trip id="238" depart="714.00" from="-315" to="307"/>
    <trip id="240" depart="720.00" from="-307" to="-270"/>
    <trip id="244" depart="732.00" from="-315" to="305"/>
    <trip id="245" depart="735.00" from="-305" to="-305"/>
    <trip id="246" depart="738.00" from="-307" to="-270"/>
    <trip id="248" depart="744.00" from="-307" to="-270"/>
    <trip id="249" depart="747.00" from="-307" to="-270"/>
    <trip id="250" depart="750.00" from="-315" to="-270"/>
    <trip id="251" depart="753.00" from="-307" to="305"/>
    <trip id="255" depart="765.00" from="-305" to="-305"/>
    <trip id="256" depart="768.00" from="270" to="1907"/>
    <trip id="257" depart="771.00" from="270" to="307"/>
    <trip id="258" depart="774.00" from="-305" to="-270"/>
    <trip id="260" depart="780.00" from="305" to="1907"/>
    <trip id="261" depart="783.00" from="-315" to="307"/>
    <trip id="262" depart="786.00" from="-315" to="307"/>
    <trip id="264" depart="792.00" from="-1907" to="-270"/>
    <trip id="265" depart="795.00" from="-1907" to="307"/>
    <trip id="267" depart="801.00" from="270" to="307"/>
    <trip id="270" depart="810.00" from="270" to="315"/>
    <trip id="271" depart="813.00" from="-1907" to="-270"/>
    <trip id="272" depart="816.00" from="-305" to="307"/>
    <trip id="273" depart="819.00" from="305" to="1907"/>
    <trip id="275" depart="825.00" from="270" to="305"/>
    <trip id="276" depart="828.00" from="-1907" to="307"/>
    <trip id="277" depart="831.00" from="305" to="305"/>
    <trip id="278" depart="834.00" from="-1907" to="315"/>
    <trip id="279" depart="837.00" from="270" to="1907"/>
    <trip id="280" depart="840.00" from="-307" to="1907"/>
    <trip id="281" depart="843.00" from="-315" to="1907"/>
    <trip id="283" depart="849.00" from="-1907" to="315"/>
    <trip id="284" depart="852.00" from="-315" to="307"/>
    <trip id="285" depart="855.00" from="270" to="1907"/>
    <trip id="286" depart="858.00" from="270" to="315"/>
    <trip id="287" depart="861.00" from="-305" to="307"/>
    <trip id="288" depart="864.00" from="-315" to="1907"/>
    <trip id="290" depart="870.00" from="-305" to="315"/>
    <trip id="293" depart="879.00" from="-307" to="305"/>
    <trip id="294" depart="882.00" from="-307" to="-270"/>
    <trip id="296" depart="888.00" from="-305" to="307"/>
    <trip id="297" depart="891.00" from="-307" to="315"/>
    <trip id="299" depart="897.00" from="-1907" to="315"/>
    <trip id="300" depart="900.00" from="-1907" to="307"/>
    <trip id="302" depart="906.00" from="270" to="305"/>
    <trip id="304" depart="912.00" from="-1907" to="-305"/>
    <trip id="306" depart="918.00" from="-315" to="1907"/>
    <trip id="307" depart="921.00" from="-315" to="1907"/>
    <trip id="310" depart="930.00" from="-305" to="-270"/>
    <trip id="311" depart="933.00" from="-305" to="-270"/>
    <trip id="312" depart="936.00" from="-315" to="307"/>
    <trip id="313" depart="939.00" from="-305" to="-305"/>
    <trip id="315" depart="945.00" from="305" to="305"/>
    <trip id="316" depart="948.00" from="-305" to="-270"/>
    <trip id="317" depart="951.00" from="-305" to="-305"/>
    <trip id="318" depart="954.00" from="-305" to="-270"/>
    <trip id="320" depart="960.00" from="305" to="305"/>
    <trip id="322" depart="966.00" from="305" to="1907"/>
    <trip id="323" depart="969.00" from="305" to="305"/>
    <trip id="324" depart="972.00" from="-307" to="1907"/>
    <trip id="325" depart="975.00" from="-305" to="-270"/>
    <trip id="326" depart="978.00" from="305" to="1907"/>
    <trip id="327" depart="981.00" from="270" to="1907"/>
    <trip id="329" depart="987.00" from="-1907" to="-270"/>
    <trip id="332" depart="996.00" from="270" to="305"/>
    <trip id="334" depart="1002.00" from="-315" to="1907"/>
    <trip id="335" depart="1005.00" from="-307" to="315"/>
    <trip id="337" depart="1011.00" from="-315" to="305"/>
    <trip id="338" depart="1014.00" from="270" to="315"/>
    <trip id="339" depart="1017.00" from="-305" to="-305"/>
    <trip id="340" depart="1020.00" from="-315" to="-270"/>
    <trip id="341" depart="1023.00" from="-305" to="-270"/>
    <trip id="344" depart="1032.00" from="-305" to="307"/>
    <trip id="345" depart="1035.00" from="270" to="1907"/>
    <trip id="346" depart="1038.00" from="270" to="315"/>
    <trip id="347" depart="1041.00" from="270" to="305"/>
    <trip id="349" depart="1047.00" from="-307" to="305"/>
    <trip id="352" depart="1056.00" from="-1907" to="-305"/>
    <trip id="353" depart="1059.00" from="270" to="305"/>
    <trip id="354" depart="1062.00" from="-305" to="-270"/>
    <trip id="355" depart="1065.00" from="270" to="307"/>
    <trip id="356" depart="1068.00" from="305" to="305"/>
    <trip id="357" depart="1071.00" from="-307" to="-270"/>
    <trip id="359" depart="1077.00" from="-305" to="-305"/>
    <trip id="360" depart="1080.00" from="-1907" to="315"/>
    <trip id="361" depart="1083.00" from="305" to="305"/>
    <trip id="364" depart="1092.00" from="-1907" to="307"/>
    <trip id="365" depart="1095.00" from="-307" to="305"/>
    <trip id="367" depart="1101.00" from="-315" to="305"/>
    <trip id="368" depart="1104.00" from="-307" to="-270"/>
    <trip id="370" depart="1110.00" from="270" to="315"/>
    <trip id="371" depart="1113.00" from="-305" to="307"/>
    <trip id="372" depart="1116.00" from="-305" to="315"/>
    <trip id="373" depart="1119.00" from="270" to="305"/>
    <trip id="375" depart="1125.00" from="-305" to="315"/>
    <trip id="376" depart="1128.00" from="-307" to="305"/>
    <trip id="377" depart="1131.00" from="305" to="305"/>
    <trip id="378" depart="1134.00" from="-315" to="1907"/>
    <trip id="380" depart="1140.00" from="270" to="305"/>
    <trip id="384" depart="1152.00" from="-1907" to="315"/>
    <trip id="387" depart="1161.00" from="-315" to="-270"/>
    <trip id="389" depart="1167.00" from="-307" to="-270"/>
    <trip id="390" depart="1170.00" from="270" to="1907"/>
    <trip id="391" depart="1173.00" from="270" to="305"/>
    <trip id="392" depart="1176.00" from="-305" to="315"/>
    <trip id="394" depart="1182.00" from="-315" to="1907"/>
    <trip id="395" depart="1185.00" from="305" to="305"/>
    <trip id="397" depart="1191.00" from="-305" to="307"/>
    <trip id="398" depart="1194.00" from="-307" to="315"/>
    <trip id="399" depart="1197.00" from="-315" to="307"/>
    <trip id="400" depart="1200.00" from="-305" to="-305"/>
    <trip id="402" depart="1206.00" from="-307" to="-270"/>
    <trip id="403" depart="1209.00" from="-315" to="1907"/>
    <trip id="404" depart="1212.00" from="-315" to="305"/>
    <trip id="406" depart="1218.00" from="-305" to="307"/>
    <trip id="409" depart="1227.00" from="270" to="307"/>
    <trip id="410" depart="1230.00" from="270" to="1907"/>
    <trip id="411" depart="1233.00" from="-315" to="307"/>
    <trip id="412" depart="1236.00" from="305" to="1907"/>
    <trip id="415" depart="1245.00" from="305" to="1907"/>
    <trip id="416" depart="1248.00" from="-315" to="1907"/>
    <trip id="417" depart="1251.00" from="270" to="1907"/>
    <trip id="418" depart="1254.00" from="-315" to="-270"/>
    <trip id="419" depart="1257.00" from="-307" to="315"/>
    <trip id="424" depart="1272.00" from="270" to="307"/>
    <trip id="428" depart="1284.00" from="270" to="1907"/>
    <trip id="430" depart="1290.00" from="305" to="1907"/>
    <trip id="431" depart="1293.00" from="270" to="315"/>
    <trip id="432" depart="1296.00" from="-1907" to="307"/>
    <trip id="435" depart="1305.00" from="-315" to="307"/>
    <trip id="436" depart="1308.00" from="-305" to="-270"/>
    <trip id="437" depart="1311.00" from="305" to="305"/>
    <trip id="438" depart="1314.00" from="-305" to="315"/>
    <trip id="440" depart="1320.00" from="-305" to="-305"/>
    <trip id="441" depart="1323.00" from="-1907" to="307"/>
    <trip id="444" depart="1332.00" from="-307" to="305"/>
    <trip id="445" depart="1335.00" from="-315" to="1907"/>
    <trip id="446" depart="1338.00" from="-305" to="315"/>
    <trip id="449" depart="1347.00" from="-315" to="305"/>
    <trip id="451" depart="1353.00" from="305" to="305"/>
    <trip id="453" depart="1359.00" from="270" to="307"/>
    <trip id="455" depart="1365.00" from="-307" to="315"/>
    <trip id="456" depart="1368.00" from="-305" to="307"/>
    <trip id="457" depart="1371.00" from="-315" to="1907"/>
    <trip id="458" depart="1374.00" from="-315" to="305"/>
    <trip id="459" depart="1377.00" from="270" to="307"/>
    <trip id="463" depart="1389.00" from="-307" to="305"/>
    <trip id="465" depart="1395.00" from="-305" to="307"/>
    <trip id="466" depart="1398.00" from="-305" to="-270"/>
    <trip id="470" depart="1410.00" from="270" to="1907"/>
    <trip id="471" depart="1413.00" from="270" to="307"/>
    <trip id="472" depart="1416.00" from="-307" to="-270"/>
    <trip id="475" depart="1425.00" from="270" to="315"/>
    <trip id="480" depart="1440.00" from="270" to="305"/>
    <trip id="481" depart="1443.00" from="270" to="315"/>
    <trip id="482" depart="1446.00" from="-1907" to="-305"/>
    <trip id="483" depart="1449.00" from="-1907" to="315"/>
    <trip id="485" depart="1455.00" from="-305" to="-270"/>
    <trip id="486" depart="1458.00" from="270" to="315"/>
    <trip id="488" depart="1464.00" from="-1907" to="315"/>
    <trip id="490" depart="1470.00" from="-1907" to="315"/>
    <trip id="492" depart="1476.00" from="270" to="307"/>
    <trip id="493" depart="1479.00" from="305" to="1907"/>
    <trip id="495" depart="1485.00" from="-307" to="-270"/>
    <trip id="496" depart="1488.00" from="-307" to="1907"/>
    <trip id="498" depart="1494.00" from="-307" to="1907"/>
    <trip id="500" depart="1500.00" from="-1907" to="307"/>
    <trip id="502" depart="1506.00" from="-307" to="1907"/>
    <trip id="503" depart="1509.00" from="-305" to="-270"/>
    <trip id="504" depart="1512.00" from="305" to="1907"/>
    <trip id="505" depart="1515.00" from="-315" to="305"/>
    <trip id="506" depart="1518.00" from="-315" to="-270"/>
    <trip id="509" depart="1527.00" from="-1907" to="307"/>
    <trip id="510" depart="1530.00" from="-305" to="-305"/>
    <trip id="512" depart="1536.00" from="-1907" to="315"/>
    <trip id="513" depart="1539.00" from="-1907" to="315"/>
    <trip id="514" depart="1542.00" from="-1907" to="-270"/>
    <trip id="515" depart="1545.00" from="-305" to="-305"/>
    <trip id="516" depart="1548.00" from="-315" to="-270"/>
    <trip id="517" depart="1551.00" from="-1907" to="307"/>
    <trip id="518" depart="1554.00" from="-305" to="-305"/>
    <trip id="519" depart="1557.00" from="-305" to="-270"/>
    <trip id="520" depart="1560.00" from="270" to="305"/>
    <trip id="521" depart="1563.00" from="270" to="1907"/>
    <trip id="522" depart="1566.00" from="270" to="305"/>
    <trip id="525" depart="1575.00" from="270" to="315"/>
    <trip id="526" depart="1578.00" from="-315" to="1907"/>
    <trip id="528" depart="1584.00" from="-307" to="1907"/>
    <trip id="529" depart="1587.00" from="270" to="1907"/>
    <trip id="532" depart="1596.00" from="-1907" to="-305"/>
    <trip id="533" depart="1599.00" from="-315" to="305"/>
    <trip id="534" depart="1602.00" from="-305" to="315"/>
    <trip id="535" depart="1605.00" from="-315" to="1907"/>
    <trip id="536" depart="1608.00" from="-315" to="-270"/>
    <trip id="537" depart="1611.00" from="270" to="315"/>
    <trip id="538" depart="1614.00" from="-315" to="307"/>
    <trip id="541" depart="1623.00" from="-307" to="1907"/>
    <trip id="542" depart="1626.00" from="-307" to="-270"/>
    <trip id="543" depart="1629.00" from="-307" to="305"/>
    <trip id="544" depart="1632.00" from="-307" to="-270"/>
    <trip id="547" depart="1641.00" from="-1907" to="307"/>
    <trip id="548" depart="1644.00" from="270" to="305"/>
    <trip id="549" depart="1647.00" from="-315" to="305"/>
    <trip id="550" depart="1650.00" from="-305" to="-270"/>
    <trip id="551" depart="1653.00" from="-307" to="305"/>
    <trip id="552" depart="1656.00" from="270" to="315"/>
    <trip id="553" depart="1659.00" from="270" to="315"/>
    <trip id="554" depart="1662.00" from="-315" to="1907"/>
    <trip id="557" depart="1671.00" from="-1907" to="315"/>
    <trip id="559" depart="1677.00" from="-315" to="307"/>
    <trip id="561" depart="1683.00" from="270" to="305"/>
    <trip id="562" depart="1686.00" from="-315" to="-270"/>
    <trip id="564" depart="1692.00" from="-305" to="-305"/>
    <trip id="566" depart="1698.00" from="-307" to="-270"/>
    <trip id="567" depart="1701.00" from="305" to="305"/>
    <trip id="568" depart="1704.00" from="-307" to="-270"/>
    <trip id="569" depart="1707.00" from="-315" to="-270"/>
    <trip id="571" depart="1713.00" from="-307" to="1907"/>
    <trip id="573" depart="1719.00" from="270" to="305"/>
    <trip id="574" depart="1722.00" from="-1907" to="-270"/>
    <trip id="577" depart="1731.00" from="-315" to="1907"/>
    <trip id="581" depart="1743.00" from="270" to="1907"/>
    <trip id="583" depart="1749.00" from="-307" to="305"/>
    <trip id="584" depart="1752.00" from="-1907" to="-305"/>
    <trip id="585" depart="1755.00" from="-305" to="-270"/>
    <trip id="586" depart="1758.00" from="-305" to="-305"/>
    <trip id="587" depart="1761.00" from="-1907" to="307"/>
    <trip id="589" depart="1767.00" from="270" to="305"/>
    <trip id="591" depart="1773.00" from="-1907" to="315"/>
    <trip id="592" depart="1776.00" from="-1907" to="-270"/>
    <trip id="594" depart="1782.00" from="-315" to="305"/>
    <trip id="595" depart="1785.00" from="270" to="1907"/>
    <trip id="596" depart="1788.00" from="-1907" to="-270"/>
    <trip id="597" depart="1791.00" from="-305" to="307"/>
    <trip id="598" depart="1794.00" from="-315" to="307"/>
    <trip id="601" depart="1803.00" from="-315" to="305"/>
    <trip id="606" depart="1818.00" from="305" to="1907"/>
    <trip id="607" depart="1821.00" from="270" to="307"/>
    <trip id="609" depart="1827.00" from="-1907" to="-305"/>
    <trip id="610" depart="1830.00" from="-315" to="307"/>
    <trip id="612" depart="1836.00" from="270" to="1907"/>
    <trip id="613" depart="1839.00" from="270" to="307"/>
    <trip id="614" depart="1842.00" from="-307" to="315"/>
    <trip id="615" depart="1845.00" from="-315" to="305"/>
    <trip id="617" depart="1851.00" from="-315" to="-270"/>
    <trip id="619" depart="1857.00" from="-305" to="-305"/>
    <trip id="622" depart="1866.00" from="-1907" to="307"/>
    <trip id="623" depart="1869.00" from="-1907" to="315"/>
    <trip id="624" depart="1872.00" from="305" to="305"/>
    <trip id="625" depart="1875.00" from="-315" to="1907"/>
    <trip id="626" depart="1878.00" from="-315" to="307"/>
    <trip id="627" depart="1881.00" from="305" to="1907"/>
    <trip id="628" depart="1884.00" from="270" to="305"/>
    <trip id="630" depart="1890.00" from="-1907" to="-270"/>
    <trip id="631" depart="1893.00" from="-1907" to="315"/>
    <trip id="635" depart="1905.00" from="-307" to="305"/>
    <trip id="638" depart="1914.00" from="-307" to="305"/>
    <trip id="639" depart="1917.00" from="270" to="305"/>
    <trip id="640" depart="1920.00" from="-1907" to="-270"/>
    <trip id="642" depart="1926.00" from="270" to="305"/>
    <trip id="644" depart="1932.00" from="-307" to="305"/>
    <trip id="647" depart="1941.00" from="-307" to="305"/>
    <trip id="650" depart="1950.00" from="270" to="307"/>
    <trip id="651" depart="1953.00" from="270" to="307"/>
    <trip id="652" depart="1956.00" from="270" to="305"/>
    <trip id="653" depart="1959.00" from="-315" to="1907"/>
    <trip id="654" depart="1962.00" from="-307" to="1907"/>
    <trip id="655" depart="1965.00" from="-305" to="-305"/>
    <trip id="656" depart="1968.00" from="305" to="1907"/>
    <trip id="657" depart="1971.00" from="-305" to="-270"/>
    <trip id="658" depart="1974.00" from="-1907" to="315"/>
    <trip id="659" depart="1977.00" from="-1907" to="307"/>
    <trip id="663" depart="1989.00" from="-307" to="-270"/>
    <trip id="664" depart="1992.00" from="270" to="307"/>
    <trip id="666" depart="1998.00" from="-307" to="1907"/>
    <trip id="669" depart="2007.00" from="270" to="1907"/>
    <trip id="671" depart="2013.00" from="270" to="1907"/>
    <trip id="672" depart="2016.00" from="305" to="1907"/>
    <trip id="675" depart="2025.00" from="-307" to="305"/>
    <trip id="679" depart="2037.00" from="305" to="305"/>
    <trip id="680" depart="2040.00" from="-1907" to="315"/>
    <trip id="684" depart="2052.00" from="-307" to="315"/>
    <trip id="686" depart="2058.00" from="-307" to="-270"/>
    <trip id="688" depart="2064.00" from="-305" to="315"/>
    <trip id="689" depart="2067.00" from="-307" to="-270"/>
    <trip id="691" depart="2073.00" from="-315" to="307"/>
    <trip id="692" depart="2076.00" from="-1907" to="-305"/>
    <trip id="693" depart="2079.00" from="270" to="307"/>
    <trip id="694" depart="2082.00" from="-1907" to="307"/>
    <trip id="695" depart="2085.00" from="-307" to="-270"/>
    <trip id="696" depart="2088.00" from="-1907" to="-305"/>
    <trip id="697" depart="2091.00" from="305" to="305"/>
    <trip id="698" depart="2094.00" from="270" to="305"/>
    <trip id="699" depart="2097.00" from="-1907" to="-305"/>
    <trip id="700" depart="2100.00" from="-305" to="-270"/>
    <trip id="702" depart="2106.00" from="-307" to="-270"/>
    <trip id="703" depart="2109.00" from="305" to="305"/>
    <trip id="705" depart="2115.00" from="-305" to="-270"/>
    <trip id="706" depart="2118.00" from="-307" to="305"/>
    <trip id="708" depart="2124.00" from="-315" to="-270"/>
    <trip id="710" depart="2130.00" from="-315" to="305"/>
    <trip id="711" depart="2133.00" from="305" to="305"/>
    <trip id="712" depart="2136.00" from="-307" to="1907"/>
    <trip id="714" depart="2142.00" from="-305" to="-270"/>
    <trip id="715" depart="2145.00" from="270" to="1907"/>
    <trip id="716" depart="2148.00" from="270" to="305"/>
    <trip id="717" depart="2151.00" from="270" to="307"/>
    <trip id="718" depart="2154.00" from="-305" to="-270"/>
    <trip id="719" depart="2157.00" from="-315" to="307"/>
    <trip id="720" depart="2160.00" from="-305" to="307"/>
    <trip id="722" depart="2166.00" from="-315" to="307"/>
    <trip id="723" depart="2169.00" from="-1907" to="307"/>
    <trip id="725" depart="2175.00" from="-1907" to="-305"/>
    <trip id="726" depart="2178.00" from="-1907" to="315"/>
    <trip id="734" depart="2202.00" from="305" to="1907"/>
    <trip id="735" depart="2205.00" from="305" to="1907"/>
    <trip id="736" depart="2208.00" from="-307" to="315"/>
    <trip id="737" depart="2211.00" from="-315" to="307"/>
    <trip id="739" depart="2217.00" from="-315" to="307"/>
    <trip id="744" depart="2232.00" from="-307" to="-270"/>
    <trip id="745" depart="2235.00" from="305" to="1907"/>
    <trip id="750" depart="2250.00" from="270" to="315"/>
    <trip id="753" depart="2259.00" from="-1907" to="307"/>
    <trip id="754" depart="2262.00" from="-307" to="1907"/>
    <trip id="755" depart="2265.00" from="-315" to="305"/>
    <trip id="756" depart="2268.00" from="270" to="315"/>
    <trip id="758" depart="2274.00" from="-315" to="305"/>
    <trip id="759" depart="2277.00" from="-307" to="305"/>
    <trip id="760" depart="2280.00" from="-305" to="-270"/>
    <trip id="761" depart="2283.00" from="270" to="1907"/>
    <trip id="762" depart="2286.00" from="-307" to="305"/>
    <trip id="763" depart="2289.00" from="-305" to="-305"/>
    <trip id="764" depart="2292.00" from="-307" to="315"/>
    <trip id="765" depart="2295.00" from="-305" to="315"/>
    <trip id="766" depart="2298.00" from="-307" to="-270"/>
    <trip id="767" depart="2301.00" from="305" to="1907"/>
    <trip id="768" depart="2304.00" from="305" to="1907"/>
    <trip id="769" depart="2307.00" from="-1907" to="307"/>
    <trip id="771" depart="2313.00" from="-307" to="-270"/>
    <trip id="774" depart="2322.00" from="305" to="305"/>
    <trip id="775" depart="2325.00" from="270" to="305"/>
    <trip id="776" depart="2328.00" from="-1907" to="-305"/>
    <trip id="777" depart="2331.00" from="-1907" to="307"/>
    <trip id="780" depart="2340.00" from="-315" to="305"/>
    <trip id="781" depart="2343.00" from="-1907" to="-305"/>
    <trip id="783" depart="2349.00" from="-315" to="307"/>
    <trip id="785" depart="2355.00" from="305" to="305"/>
    <trip id="787" depart="2361.00" from="-307" to="315"/>
    <trip id="788" depart="2364.00" from="270" to="305"/>