<?xml version="1.0" encoding="UTF-8"?>

<!-- generated on 2025-03-14 13:28:40.253747 by randomTrips.py v1_22_0+0449-9311ec3459f
<configuration>
    <net-file value="random_grid_9.net.xml"/>
    <output-trip-file value="random_grid_9_light.trips.xml"/>
    <validate value="True"/>
    <period value="4.0"/>
</configuration>
-->

<!-- generated on 2025-03-14 13:28:40 by Eclipse SUMO duarouter Version v1_22_0+0449-9311ec3459f
<duarouterConfiguration xmlns:xsi="http://www.w3.org/2001/XMLSchema-instance" xsi:noNamespaceSchemaLocation="http://sumo.dlr.de/xsd/duarouterConfiguration.xsd">

    <input>
        <net-file value="random_grid_9.net.xml"/>
        <route-files value="random_grid_9_light.trips.xml"/>
    </input>

    <output>
        <output-file value="random_grid_9_light.trips.xml.tmp"/>
        <alternatives-output value="NUL"/>
        <write-trips value="true"/>
    </output>

    <time>
        <begin value="0.0"/>
        <end value="3600.0"/>
    </time>

    <report>
        <no-warnings value="true"/>
        <ignore-errors value="true"/>
        <no-step-log value="true"/>
    </report>

</duarouterConfiguration>
-->

<routes xmlns:xsi="http://www.w3.org/2001/XMLSchema-instance" xsi:noNamespaceSchemaLocation="http://sumo.dlr.de/xsd/routes_file.xsd">
    <trip id="2" depart="8.00" from="330" to="819"/>
    <trip id="4" depart="16.00" from="-833" to="-330"/>
    <trip id="5" depart="20.00" from="-819" to="1085"/>
    <trip id="6" depart="24.00" from="-1085" to="-330"/>
    <trip id="7" depart="28.00" from="330" to="1085"/>
    <trip id="8" depart="32.00" from="-819" to="1085"/>
    <trip id="11" depart="44.00" from="-819" to="-330"/>
    <trip id="13" depart="52.00" from="-1085" to="-330"/>
    <trip id="17" depart="68.00" from="-819" to="1085"/>
    <trip id="19" depart="76.00" from="833" to="1085"/>
    <trip id="22" depart="88.00" from="-1085" to="-833"/>
    <trip id="23" depart="92.00" from="-1085" to="-833"/>
    <trip id="26" depart="104.00" from="-819" to="833"/>
    <trip id="27" depart="108.00" from="330" to="819"/>
    <trip id="28" depart="112.00" from="-1085" to="819"/>
    <trip id="29" depart="116.00" from="-1085" to="-833"/>
    <trip id="31" depart="124.00" from="-833" to="819"/>
    <trip id="33" depart="132.00" from="-819" to="-330"/>
    <trip id="35" depart="140.00" from="-819" to="833"/>
    <trip id="38" depart="152.00" from="833" to="1085"/>
    <trip id="40" depart="160.00" from="-833" to="-833"/>
    <trip id="43" depart="172.00" from="833" to="1085"/>
    <trip id="44" depart="176.00" from="-1085" to="-330"/>
    <trip id="45" depart="180.00" from="-1085" to="819"/>
    <trip id="46" depart="184.00" from="330" to="1085"/>
    <trip id="47" depart="188.00" from="-1085" to="-833"/>
    <trip id="48" depart="192.00" from="833" to="1085"/>
    <trip id="49" depart="196.00" from="833" to="833"/>
    <trip id="50" depart="200.00" from="-1085" to="819"/>
    <trip id="51" depart="204.00" from="330" to="1085"/>
    <trip id="56" depart="224.00" from="-833" to="-330"/>
    <trip id="57" depart="228.00" from="833" to="833"/>
    <trip id="60" depart="240.00" from="330" to="1085"/>
    <trip id="61" depart="244.00" from="330" to="1085"/>
    <trip id="62" depart="248.00" from="-1085" to="-833"/>
    <trip id="64" depart="256.00" from="833" to="833"/>
    <trip id="65" depart="260.00" from="-819" to="-330"/>
    <trip id="66" depart="264.00" from="833" to="833"/>
    <trip id="68" depart="272.00" from="-1085" to="819"/>
    <trip id="71" depart="284.00" from="-819" to="833"/>
    <trip id="72" depart="288.00" from="-833" to="-833"/>
    <trip id="73" depart="292.00" from="-833" to="819"/>
    <trip id="77" depart="308.00" from="-1085" to="-833"/>
    <trip id="78" depart="312.00" from="-819" to="1085"/>
    <trip id="80" depart="320.00" from="-1085" to="819"/>
    <trip id="81" depart="324.00" from="-819" to="833"/>
    <trip id="84" depart="336.00" from="-819" to="-330"/>
    <trip id="85" depart="340.00" from="833" to="1085"/>
    <trip id="86" depart="344.00" from="-833" to="819"/>
    <trip id="90" depart="360.00" from="330" to="819"/>
    <trip id="92" depart="368.00" from="-833" to="-833"/>
    <trip id="95" depart="380.00" from="-833" to="-833"/>
    <trip id="96" depart="384.00" from="-819" to="833"/>
    <trip id="98" depart="392.00" from="-833" to="-330"/>
    <trip id="99" depart="396.00" from="833" to="833"/>
    <trip id="100" depart="400.00" from="833" to="833"/>
    <trip id="102" depart="408.00" from="-833" to="-833"/>
    <trip id="103" depart="412.00" from="-833" to="-330"/>
    <trip id="104" depart="416.00" from="-819" to="833"/>
    <trip id="107" depart="428.00" from="833" to="833"/>
    <trip id="108" depart="432.00" from="-833" to="819"/>
    <trip id="109" depart="436.00" from="-1085" to="-833"/>
    <trip id="110" depart="440.00" from="833" to="1085"/>
    <trip id="111" depart="444.00" from="-833" to="819"/>
    <trip id="115" depart="460.00" from="-1085" to="-330"/>
    <trip id="116" depart="464.00" from="-833" to="819"/>
    <trip id="117" depart="468.00" from="-819" to="-330"/>
    <trip id="119" depart="476.00" from="-833" to="819"/>
    <trip id="127" depart="508.00" from="833" to="833"/>
    <trip id="128" depart="512.00" from="-1085" to="-833"/>
    <trip id="129" depart="516.00" from="-819" to="833"/>
    <trip id="130" depart="520.00" from="833" to="833"/>
    <trip id="131" depart="524.00" from="-819" to="-330"/>
    <trip id="133" depart="532.00" from="330" to="833"/>
    <trip id="136" depart="544.00" from="330" to="833"/>
    <trip id="137" depart="548.00" from="-1085" to="-330"/>
    <trip id="144" depart="576.00" from="-833" to="-833"/>
    <trip id="145" depart="580.00" from="-1085" to="819"/>
    <trip id="147" depart="588.00" from="330" to="1085"/>
    <trip id="148" depart="592.00" from="-833" to="-330"/>
    <trip id="150" depart="600.00" from="833" to="1085"/>
    <trip id="151" depart="604.00" from="833" to="1085"/>
    <trip id="152" depart="608.00" from="-1085" to="-330"/>
    <trip id="153" depart="612.00" from="-819" to="833"/>
    <trip id="154" depart="616.00" from="330" to="833"/>
    <trip id="156" depart="624.00" from="-819" to="-330"/>
    <trip id="157" depart="628.00" from="330" to="833"/>
    <trip id="158" depart="632.00" from="-833" to="819"/>
    <trip id="160" depart="640.00" from="833" to="833"/>
    <trip id="161" depart="644.00" from="833" to="833"/>
    <trip id="162" depart="648.00" from="-1085" to="819"/>
    <trip id="163" depart="652.00" from="-819" to="833"/>
    <trip id="164" depart="656.00" from="833" to="833"/>
    <trip id="167" depart="668.00" from="833" to="833"/>
    <trip id="168" depart="672.00" from="-819" to="833"/>
    <trip id="169" depart="676.00" from="-833" to="-833"/>
    <trip id="171" depart="684.00" from="-1085" to="-330"/>
    <trip id="172" depart="688.00" from="-819" to="833"/>
    <trip id="175" depart="700.00" from="833" to="1085"/>
    <trip id="181" depart="724.00" from="330" to="1085"/>
    <trip id="182" depart="728.00" from="-819" to="1085"/>
    <trip id="185" depart="740.00" from="-833" to="819"/>
    <trip id="186" depart="744.00" from="330" to="819"/>
    <trip id="187" depart="748.00" from="-819" to="-330"/>
    <trip id="189" depart="756.00" from="-819" to="833"/>
    <trip id="191" depart="764.00" from="-819" to="1085"/>
    <trip id="192" depart="768.00" from="-833" to="-833"/>
    <trip id="196" depart="784.00" from="-819" to="1085"/>
    <trip id="197" depart="788.00" from="-1085" to="-833"/>
    <trip id="199" depart="796.00" from="330" to="1085"/>
    <trip id="200" depart="800.00" from="-833" to="-833"/>
    <trip id="207" depart="828.00" from="-1085" to="-330"/>
    <trip id="208" depart="832.00" from="-819" to="1085"/>
    <trip id="210" depart="840.00" from="-833" to="819"/>
    <trip id="211" depart="844.00" from="-1085" to="819"/>
    <trip id="212" depart="848.00" from="-833" to="-833"/>
    <trip id="214" depart="856.00" from="330" to="819"/>
    <trip id="217" depart="868.00" from="-833" to="-330"/>
    <trip id="218" depart="872.00" from="-819" to="833"/>
    <trip id="220" depart="880.00" from="330" to="833"/>
    <trip id="223" depart="892.00" from="330" to="1085"/>
    <trip id="224" depart="896.00" from="833" to="1085"/>
    <trip id="226" depart="904.00" from="-833" to="-833"/>
    <trip id="228" depart="912.00" from="330" to="1085"/>
    <trip id="230" depart="920.00" from="-1085" to="-833"/>
    <trip id="232" depart="928.00" from="-833" to="-330"/>
    <trip id="236" depart="944.00" from="-833" to="-833"/>
    <trip id="238" depart="952.00" from="-833" to="819"/>
    <trip id="240" depart="960.00" from="-819" to="-330"/>
    <trip id="242" depart="968.00" from="833" to="833"/>
    <trip id="243" depart="972.00" from="-833" to="819"/>
    <trip id="244" depart="976.00" from="-833" to="819"/>
    <trip id="246" depart="984.00" from="-833" to="-330"/>
    <trip id="248" depart="992.00" from="-833" to="-330"/>
    <trip id="249" depart="996.00" from="-833" to="-330"/>
    <trip id="251" depart="1004.00" from="-819" to="1085"/>
    <trip id="252" depart="1008.00" from="-1085" to="819"/>
    <trip id="254" depart="1016.00" from="-1085" to="-833"/>
    <trip id="257" depart="1028.00" from="330" to="833"/>
    <trip id="258" depart="1032.00" from="-819" to="-330"/>
    <trip id="261" depart="1044.00" from="330" to="819"/>
    <trip id="262" depart="1048.00" from="330" to="819"/>
    <trip id="264" depart="1056.00" from="-1085" to="-330"/>
    <trip id="265" depart="1060.00" from="-1085" to="819"/>
    <trip id="266" depart="1064.00" from="-833" to="-833"/>
    <trip id="267" depart="1068.00" from="330" to="819"/>
    <trip id="268" depart="1072.00" from="-1085" to="819"/>
    <trip id="270" depart="1080.00" from="833" to="833"/>
    <trip id="271" depart="1084.00" from="-1085" to="-330"/>
    <trip id="275" depart="1100.00" from="330" to="819"/>
    <trip id="276" depart="1104.00" from="-1085" to="819"/>
    <trip id="280" depart="1120.00" from="-833" to="-833"/>
    <trip id="281" depart="1124.00" from="-833" to="-833"/>
    <trip id="282" depart="1128.00" from="833" to="833"/>
    <trip id="284" depart="1136.00" from="330" to="833"/>
    <trip id="285" depart="1140.00" from="330" to="1085"/>
    <trip id="286" depart="1144.00" from="330" to="833"/>
    <trip id="287" depart="1148.00" from="-819" to="833"/>
    <trip id="289" depart="1156.00" from="-833" to="819"/>
    <trip id="290" depart="1160.00" from="-819" to="833"/>
    <trip id="293" depart="1172.00" from="-833" to="819"/>
    <trip id="294" depart="1176.00" from="-819" to="-330"/>
    <trip id="297" depart="1188.00" from="-819" to="833"/>
    <trip id="300" depart="1200.00" from="-1085" to="819"/>
    <trip id="301" depart="1204.00" from="-833" to="819"/>
    <trip id="302" depart="1208.00" from="330" to="819"/>
    <trip id="303" depart="1212.00" from="-833" to="819"/>
    <trip id="304" depart="1216.00" from="-1085" to="-833"/>
    <trip id="310" depart="1240.00" from="-819" to="-330"/>
    <trip id="311" depart="1244.00" from="-1085" to="-330"/>
    <trip id="312" depart="1248.00" from="-833" to="819"/>
    <trip id="313" depart="1252.00" from="-1085" to="-833"/>
    <trip id="314" depart="1256.00" from="-833" to="819"/>
    <trip id="315" depart="1260.00" from="833" to="1085"/>
    <trip id="316" depart="1264.00" from="-819" to="-330"/>
    <trip id="317" depart="1268.00" from="-1085" to="-833"/>
    <trip id="318" depart="1272.00" from="-1085" to="-330"/>
    <trip id="319" depart="1276.00" from="-833" to="-833"/>
    <trip id="320" depart="1280.00" from="833" to="1085"/>
    <trip id="322" depart="1288.00" from="833" to="1085"/>
    <trip id="323" depart="1292.00" from="833" to="1085"/>
    <trip id="325" depart="1300.00" from="-1085" to="-330"/>
    <trip id="326" depart="1304.00" from="833" to="1085"/>
    <trip id="327" depart="1308.00" from="833" to="1085"/>
    <trip id="328" depart="1312.00" from="-1085" to="819"/>
    <trip id="329" depart="1316.00" from="-1085" to="-330"/>
    <trip id="330" depart="1320.00" from="-833" to="-833"/>
    <trip id="332" depart="1328.00" from="330" to="819"/>
    <trip id="337" depart="1348.00" from="330" to="819"/>
    <trip id="338" depart="1352.00" from="330" to="833"/>
    <trip id="341" depart="1364.00" from="-1085" to="-330"/>
    <trip id="343" depart="1372.00" from="-833" to="-833"/>
    <trip id="345" depart="1380.00" from="330" to="1085"/>
    <trip id="346" depart="1384.00" from="330" to="833"/>
    <trip id="347" depart="1388.00" from="330" to="819"/>
    <trip id="348" depart="1392.00" from="330" to="833"/>
    <trip id="350" depart="1400.00" from="330" to="833"/>
    <trip id="352" depart="1408.00" from="-1085" to="-833"/>
    <trip id="353" depart="1412.00" from="330" to="1085"/>
    <trip id="354" depart="1416.00" from="-819" to="-330"/>
    <trip id="355" depart="1420.00" from="330" to="819"/>
    <trip id="356" depart="1424.00" from="833" to="1085"/>
    <trip id="357" depart="1428.00" from="-833" to="-330"/>
    <trip id="361" depart="1444.00" from="833" to="1085"/>
    <trip id="362" depart="1448.00" from="833" to="833"/>
    <trip id="364" depart="1456.00" from="-1085" to="819"/>
    <trip id="365" depart="1460.00" from="-833" to="819"/>
    <trip id="367" depart="1468.00" from="-833" to="819"/>
    <trip id="368" depart="1472.00" from="-833" to="-330"/>
    <trip id="370" depart="1480.00" from="330" to="833"/>
    <trip id="372" depart="1488.00" from="-819" to="833"/>
    <trip id="373" depart="1492.00" from="833" to="1085"/>
    <trip id="374" depart="1496.00" from="-833" to="-833"/>
    <trip id="375" depart="1500.00" from="-819" to="833"/>
    <trip id="379" depart="1516.00" from="-1085" to="-833"/>
    <trip id="380" depart="1520.00" from="330" to="819"/>
    <trip id="383" depart="1532.00" from="-833" to="819"/>
    <trip id="387" depart="1548.00" from="-833" to="-330"/>
    <trip id="388" depart="1552.00" from="833" to="833"/>
    <trip id="389" depart="1556.00" from="-833" to="-330"/>
    <trip id="390" depart="1560.00" from="833" to="1085"/>
    <trip id="391" depart="1564.00" from="330" to="1085"/>
    <trip id="392" depart="1568.00" from="-819" to="833"/>
    <trip id="394" depart="1576.00" from="-833" to="-833"/>
    <trip id="395" depart="1580.00" from="833" to="1085"/>
    <trip id="396" depart="1584.00" from="833" to="833"/>
    <trip id="402" depart="1608.00" from="-833" to="-330"/>
    <trip id="403" depart="1612.00" from="-833" to="-833"/>
    <trip id="405" depart="1620.00" from="-833" to="-833"/>
    <trip id="406" depart="1624.00" from="-1085" to="819"/>
    <trip id="407" depart="1628.00" from="-833" to="-833"/>
    <trip id="409" depart="1636.00" from="330" to="819"/>
    <trip id="411" depart="1644.00" from="330" to="833"/>
    <trip id="412" depart="1648.00" from="833" to="1085"/>
    <trip id="415" depart="1660.00" from="833" to="1085"/>
    <trip id="417" depart="1668.00" from="330" to="1085"/>
    <trip id="421" depart="1684.00" from="330" to="833"/>
    <trip id="422" depart="1688.00" from="833" to="833"/>
    <trip id="424" depart="1696.00" from="330" to="819"/>
    <trip id="426" depart="1704.00" from="-1085" to="819"/>
    <trip id="427" depart="1708.00" from="833" to="833"/>
    <trip id="428" depart="1712.00" from="330" to="1085"/>
    <trip id="429" depart="1716.00" from="-1085" to="819"/>
    <trip id="430" depart="1720.00" from="833" to="1085"/>
    <trip id="431" depart="1724.00" from="330" to="833"/>
    <trip id="432" depart="1728.00" from="-1085" to="819"/>
    <trip id="435" depart="1740.00" from="-833" to="819"/>
    <trip id="436" depart="1744.00" from="-1085" to="-330"/>
    <trip id="438" depart="1752.00" from="-819" to="833"/>
    <trip id="444" depart="1776.00" from="-819" to="1085"/>
    <trip id="445" depart="1780.00" from="330" to="1085"/>
    <trip id="446" depart="1784.00" from="-819" to="833"/>
    <trip id="447" depart="1788.00" from="-1085" to="-833"/>
    <trip id="448" depart="1792.00" from="-833" to="-833"/>
    <trip id="452" depart="1808.00" from="-819" to="1085"/>
    <trip id="453" depart="1812.00" from="330" to="819"/>
    <trip id="454" depart="1816.00" from="-1085" to="819"/>
    <trip id="458" depart="1832.00" from="330" to="819"/>
    <trip id="459" depart="1836.00" from="330" to="819"/>
    <trip id="460" depart="1840.00" from="330" to="833"/>
    <trip id="461" depart="1844.00" from="330" to="833"/>
    <trip id="466" depart="1864.00" from="-1085" to="-330"/>
    <trip id="470" depart="1880.00" from="833" to="1085"/>
    <trip id="472" depart="1888.00" from="-819" to="-330"/>
    <trip id="474" depart="1896.00" from="833" to="833"/>
    <trip id="475" depart="1900.00" from="330" to="833"/>
    <trip id="476" depart="1904.00" from="833" to="833"/>
    <trip id="479" depart="1916.00" from="-833" to="819"/>
    <trip id="480" depart="1920.00" from="330" to="1085"/>
    <trip id="481" depart="1924.00" from="833" to="833"/>
    <trip id="482" depart="1928.00" from="-1085" to="-833"/>
    <trip id="485" depart="1940.00" from="-819" to="-330"/>
    <trip id="486" depart="1944.00" from="833" to="833"/>
    <trip id="487" depart="1948.00" from="-819" to="1085"/>
    <trip id="489" depart="1956.00" from="-819" to="1085"/>
    <trip id="492" depart="1968.00" from="330" to="819"/>
    <trip id="493" depart="1972.00" from="833" to="1085"/>
    <trip id="495" depart="1980.00" from="-833" to="-330"/>
    <trip id="498" depart="1992.00" from="-819" to="1085"/>
    <trip id="499" depart="1996.00" from="833" to="833"/>
    <trip id="500" depart="2000.00" from="-1085" to="819"/>
    <trip id="503" depart="2012.00" from="-1085" to="-330"/>
    <trip id="504" depart="2016.00" from="833" to="1085"/>
    <trip id="505" depart="2020.00" from="330" to="819"/>
    <trip id="506" depart="2024.00" from="-833" to="-330"/>
    <trip id="509" depart="2036.00" from="-1085" to="819"/>
    <trip id="514" depart="2056.00" from="-1085" to="-330"/>
    <trip id="515" depart="2060.00" from="-819" to="-330"/>
    <trip id="517" depart="2068.00" from="-1085" to="819"/>
    <trip id="519" depart="2076.00" from="-1085" to="-330"/>
    <trip id="520" depart="2080.00" from="330" to="1085"/>
    <trip id="521" depart="2084.00" from="330" to="1085"/>
    <trip id="522" depart="2088.00" from="330" to="1085"/>
    <trip id="525" depart="2100.00" from="330" to="833"/>
    <trip id="529" depart="2116.00" from="330" to="1085"/>
    <trip id="531" depart="2124.00" from="-1085" to="819"/>
    <trip id="532" depart="2128.00" from="-1085" to="-833"/>
    <trip id="533" depart="2132.00" from="330" to="1085"/>
    <trip id="534" depart="2136.00" from="-819" to="833"/>
    <trip id="537" depart="2148.00" from="330" to="833"/>
    <trip id="538" depart="2152.00" from="330" to="819"/>
    <trip id="540" depart="2160.00" from="-833" to="-833"/>
    <trip id="541" depart="2164.00" from="-819" to="1085"/>
    <trip id="542" depart="2168.00" from="-833" to="-330"/>
    <trip id="543" depart="2172.00" from="-833" to="819"/>
    <trip id="544" depart="2176.00" from="-819" to="-330"/>
    <trip id="547" depart="2188.00" from="-1085" to="819"/>
    <trip id="548" depart="2192.00" from="833" to="1085"/>
    <trip id="550" depart="2200.00" from="-819" to="-330"/>
    <trip id="552" depart="2208.00" from="330" to="833"/>
    <trip id="553" depart="2212.00" from="330" to="833"/>
    <trip id="555" depart="2220.00" from="-833" to="-833"/>
    <trip id="560" depart="2240.00" from="833" to="833"/>
    <trip id="563" depart="2252.00" from="833" to="833"/>
    <trip id="564" depart="2256.00" from="-819" to="-330"/>
    <trip id="566" depart="2264.00" from="-819" to="-330"/>
    <trip id="567" depart="2268.00" from="833" to="1085"/>
    <trip id="568" depart="2272.00" from="-833" to="-330"/>
    <trip id="571" depart="2284.00" from="-833" to="-833"/>
    <trip id="573" depart="2292.00" from="330" to="1085"/>
    <trip id="574" depart="2296.00" from="-1085" to="-330"/>
    <trip id="575" depart="2300.00" from="-1085" to="819"/>
    <trip id="577" depart="2308.00" from="330" to="1085"/>
    <trip id="578" depart="2312.00" from="-833" to="-833"/>
    <trip id="580" depart="2320.00" from="-833" to="-833"/>
    <trip id="581" depart="2324.00" from="330" to="1085"/>
    <trip id="583" depart="2332.00" from="-819" to="1085"/>
    <trip id="584" depart="2336.00" from="-1085" to="-833"/>
    <trip id="585" depart="2340.00" from="-819" to="-330"/>
    <trip id="587" depart="2348.00" from="-1085" to="819"/>
    <trip id="588" depart="2352.00" from="-1085" to="-833"/>
    <trip id="589" depart="2356.00" from="330" to="1085"/>
    <trip id="590" depart="2360.00" from="833" to="833"/>
    <trip id="592" depart="2368.00" from="-1085" to="-330"/>
    <trip id="593" depart="2372.00" from="833" to="833"/>
    <trip id="595" depart="2380.00" from="330" to="1085"/>
    <trip id="596" depart="2384.00" from="-1085" to="-330"/>
    <trip id="597" depart="2388.00" from="-819" to="833"/>
    <trip id="598" depart="2392.00" from="330" to="833"/>
    <trip id="607" depart="2428.00" from="330" to="833"/>
    <trip id="609" depart="2436.00" from="-1085" to="-330"/>
    <trip id="610" depart="2440.00" from="330" to="819"/>
    <trip id="612" depart="2448.00" from="330" to="1085"/>
    <trip id="613" depart="2452.00" from="330" to="819"/>
    <trip id="615" depart="2460.00" from="-833" to="819"/>
    <trip id="616" depart="2464.00" from="330" to="833"/>
    <trip id="621" depart="2484.00" from="-819" to="1085"/>
    <trip id="626" depart="2504.00" from="-833" to="819"/>
    <trip id="627" depart="2508.00" from="833" to="1085"/>
    <trip id="629" depart="2516.00" from="-819" to="1085"/>
    <trip id="630" depart="2520.00" from="-1085" to="-330"/>
    <trip id="633" depart="2532.00" from="-833" to="-330"/>
    <trip id="634" depart="2536.00" from="-819" to="1085"/>
    <trip id="636" depart="2544.00" from="-1085" to="-833"/>
    <trip id="637" depart="2548.00" from="-819" to="1085"/>
    <trip id="638" depart="2552.00" from="-819" to="1085"/>
    <trip id="639" depart="2556.00" from="330" to="819"/>
    <trip id="640" depart="2560.00" from="-1085" to="-330"/>
    <trip id="642" depart="2568.00" from="330" to="819"/>
    <trip id="643" depart="2572.00" from="833" to="833"/>
    <trip id="644" depart="2576.00" from="-819" to="1085"/>
    <trip id="645" depart="2580.00" from="-1085" to="-833"/>
    <trip id="647" depart="2588.00" from="-819" to="1085"/>
    <trip id="652" depart="2608.00" from="330" to="1085"/>
    <trip id="653" depart="2612.00" from="330" to="1085"/>
    <trip id="655" depart="2620.00" from="-1085" to="-833"/>
    <trip id="656" depart="2624.00" from="833" to="1085"/>
    <trip id="657" depart="2628.00" from="-819" to="-330"/>
    <trip id="659" depart="2636.00" from="-1085" to="819"/>
    <trip id="660" depart="2640.00" from="833" to="833"/>
    <trip id="661" depart="2644.00" from="-1085" to="-833"/>
    <trip id="663" depart="2652.00" from="-819" to="-330"/>
    <trip id="668" depart="2672.00" from="-833" to="-833"/>
    <trip id="669" depart="2676.00" from="330" to="1085"/>
    <trip id="670" depart="2680.00" from="-833" to="-833"/>
    <trip id="671" depart="2684.00" from="833" to="1085"/>
    <trip id="673" depart="2692.00" from="833" to="833"/>
    <trip id="674" depart="2696.00" from="-833" to="-833"/>
    <trip id="675" depart="2700.00" from="-819" to="1085"/>
    <trip id="676" depart="2704.00" from="833" to="833"/>
    <trip id="679" depart="2716.00" from="833" to="1085"/>
    <trip id="685" depart="2740.00" from="-819" to="1085"/>
    <trip id="686" depart="2744.00" from="-819" to="-330"/>
    <trip id="688" depart="2752.00" from="-819" to="833"/>
    <trip id="689" depart="2756.00" from="-819" to="-330"/>
    <trip id="690" depart="2760.00" from="833" to="833"/>
    <trip id="691" depart="2764.00" from="330" to="819"/>
    <trip id="692" depart="2768.00" from="-1085" to="-833"/>
    <trip id="694" depart="2776.00" from="-1085" to="819"/>
    <trip id="695" depart="2780.00" from="-833" to="-330"/>
    <trip id="696" depart="2784.00" from="-1085" to="-833"/>
    <trip id="697" depart="2788.00" from="833" to="1085"/>
    <trip id="698" depart="2792.00" from="330" to="1085"/>
    <trip id="699" depart="2796.00" from="-1085" to="-833"/>
    <trip id="700" depart="2800.00" from="-819" to="-330"/>
    <trip id="701" depart="2804.00" from="-833" to="819"/>
    <trip id="702" depart="2808.00" from="-833" to="-330"/>
    <trip id="703" depart="2812.00" from="833" to="1085"/>
    <trip id="705" depart="2820.00" from="-819" to="-330"/>
    <trip id="706" depart="2824.00" from="-833" to="819"/>
    <trip id="707" depart="2828.00" from="-819" to="1085"/>
    <trip id="711" depart="2844.00" from="833" to="1085"/>
    <trip id="712" depart="2848.00" from="-819" to="1085"/>
    <trip id="713" depart="2852.00" from="330" to="833"/>
    <trip id="714" depart="2856.00" from="-819" to="-330"/>
    <trip id="716" depart="2864.00" from="330" to="819"/>
    <trip id="717" depart="2868.00" from="330" to="819"/>
    <trip id="718" depart="2872.00" from="-819" to="-330"/>
    <trip id="720" depart="2880.00" from="-1085" to="819"/>
    <trip id="721" depart="2884.00" from="-833" to="819"/>
    <trip id="722" depart="2888.00" from="330" to="833"/>
    <trip id="723" depart="2892.00" from="-1085" to="819"/>
    <trip id="724" depart="2896.00" from="-833" to="-833"/>
    <trip id="725" depart="2900.00" from="-1085" to="-330"/>
    <trip id="728" depart="2912.00" from="-833" to="-833"/>
    <trip id="732" depart="2928.00" from="-1085" to="-833"/>
    <trip id="735" depart="2940.00" from="833" to="1085"/>
    <trip id="739" depart="2956.00" from="330" to="833"/>
    <trip id="740" depart="2960.00" from="-833" to="-833"/>
    <trip id="741" depart="2964.00" from="-1085" to="819"/>
    <trip id="743" depart="2972.00" from="-833" to="819"/>
    <trip id="744" depart="2976.00" from="-819" to="-330"/>
    <trip id="747" depart="2988.00" from="833" to="833"/>
    <trip id="748" depart="2992.00" from="-1085" to="819"/>
    <trip id="749" depart="2996.00" from="-819" to="833"/>
    <trip id="750" depart="3000.00" from="330" to="833"/>
    <trip id="751" depart="3004.00" from="-1085" to="819"/>
    <trip id="753" depart="3012.00" from="-1085" to="819"/>
    <trip id="755" depart="3020.00" from="-833" to="819"/>
    <trip id="756" depart="3024.00" from="330" to="833"/>
    <trip id="760" depart="3040.00" from="-819" to="-330"/>
    <trip id="761" depart="3044.00" from="330" to="1085"/>
    <trip id="762" depart="3048.00" from="-819" to="1085"/>
    <trip id="765" depart="3060.00" from="-819" to="833"/>
    <trip id="766" depart="3064.00" from="-833" to="-330"/>
    <trip id="767" depart="3068.00" from="833" to="1085"/>
    <trip id="768" depart="3072.00" from="833" to="1085"/>
    <trip id="769" depart="3076.00" from="-1085" to="819"/>
    <trip id="771" depart="3084.00" from="-819" to="-330"/>
    <trip id="775" depart="3100.00" from="330" to="1085"/>
    <trip id="776" depart="3104.00" from="-1085" to="-833"/>
    <trip id="777" depart="3108.00" from="-1085" to="819"/>
    <trip id="779" depart="3116.00" from="-819" to="833"/>
    <trip id="780" depart="3120.00" from="-833" to="819"/>
    <trip id="781" depart="3124.00" from="-1085" to="-833"/>
    <trip id="783" depart="3132.00" from="-833" to="819"/>
    <trip id="786" depart="3144.00" from="-833" to="819"/>
    <trip id="787" depart="3148.00" from="-819" to="833"/>
    <trip id="788" depart="3152.00" from="330" to="819"/>
    <trip id="791" depart="3164.00" from="-1085" to="-330"/>
    <trip id="792" depart="3168.00" from="-1085" to="-330"/>
    <trip id="794" depart="3176.00" from="-819" to="833"/>
    <trip id="795" depart="3180.00" from="833" to="833"/>
    <trip id="797" depart="3188.00" from="-833" to="-330"/>
    <trip id="798" depart="3192.00" from="-819" to="1085"/>
    <trip id="799" depart="3196.00" from="-833" to="-330"/>
    <trip id="801" depart="3204.00" from="330" to="819"/>
    <trip id="802" depart="3208.00" from="330" to="833"/>
    <trip id="804" depart="3216.00" from="-1085" to="-330"/>
    <trip id="805" depart="3220.00" from="330" to="1085"/>
    <trip id="806" depart="3224.00" from="330" to="819"/>
    <trip id="807" depart="3228.00" from="-833" to="819"/>
    <trip id="808" depart="3232.00" from="-833" to="819"/>
    <trip id="809" depart="3236.00" from="-819" to="833"/>
    <trip id="812" depart="3248.00" from="-1085" to="-330"/>
    <trip id="816" depart="3264.00" from="330" to="833"/>
    <trip id="818" depart="3272.00" from="-819" to="1085"/>
    <trip id="819" depart="3276.00" from="-819" to="1085"/>
    <trip id="821" depart="3284.00" from="-1085" to="-833"/>
    <trip id="823" depart="3292.00" from="-819" to="833"/>
    <trip id="824" depart="3296.00" from="-1085" to="-833"/>
    <trip id="825" depart="3300.00" from="-833" to="-833"/>
    <trip id="826" depart="3304.00" from="330" to="1085"/>
    <trip id="828" depart="3312.00" from="-819" to="-330"/>
    <trip id="829" depart="3316.00" from="833" to="1085"/>
    <trip id="831" depart="3324.00" from="-819" to="-330"/>
    <trip id="833" depart="3332.00" from="330" to="1085"/>
    <trip id="836" depart="3344.00" from="330" to="819"/>
    <trip id="837" depart="3348.00" from="-819" to="1085"/>
    <trip id="838" depart="3352.00" from="-833" to="-330"/>
    <trip id="839" depart="3356.00" from="-833" to="-330"/>
    <trip id="840" depart="3360.00" from="-833" to="819"/>
    <trip id="841" depart="3364.00" from="-819" to="833"/>
    <trip id="847" depart="3388.00" from="-833" to="-330"/>
    <trip id="848" depart="3392.00" from="-1085" to="-833"/>
    <trip id="850" depart="3400.00" from="330" to="1085"/>