<?xml version="1.0" encoding="UTF-8"?>

<!-- generated on 2025-03-14 13:35:51.074383 by randomTrips.py v1_19_0+1770-8bb5c24c187
<configuration>
    <net-file value="random_grid_10.net.xml"/>
    <output-trip-file value="random_grid_10_heavy.trips.xml"/>
    <validate value="True"/>
    <period value="2.0"/>
</configuration>
-->

<!-- generated on 2025-03-14 13:35:51 by Eclipse SUMO duarouter Version v1_19_0+1770-8bb5c24c187
<configuration xmlns:xsi="http://www.w3.org/2001/XMLSchema-instance" xsi:noNamespaceSchemaLocation="http://sumo.dlr.de/xsd/duarouterConfiguration.xsd">

    <input>
        <net-file value="random_grid_10.net.xml"/>
        <route-files value="random_grid_10_heavy.trips.xml"/>
    </input>

    <output>
        <output-file value="routes.rou.xml"/>
        <alternatives-output value="NUL"/>
    </output>

    <time>
        <begin value="0.0"/>
        <end value="3600.0"/>
    </time>

    <report>
        <no-warnings value="true"/>
        <ignore-errors value="true"/>
        <no-step-log value="true"/>
    </report>

</configuration>
-->

<routes xmlns:xsi="http://www.w3.org/2001/XMLSchema-instance" xsi:noNamespaceSchemaLocation="http://sumo.dlr.de/xsd/routes_file.xsd">
    <vehicle id="1" depart="2.00">
        <route edges="-1568 -1089 -937 -533"/>
    </vehicle>
    <vehicle id="2" depart="4.00">
        <route edges="533 937 1089 1568"/>
    </vehicle>
    <vehicle id="6" depart="12.00">
        <route edges="-1089 -937 -533"/>
    </vehicle>
    <vehicle id="7" depart="14.00">
        <route edges="1089"/>
    </vehicle>
    <vehicle id="10" depart="20.00">
        <route edges="533 937 1089 1568"/>
    </vehicle>
    <vehicle id="11" depart="22.00">
        <route edges="-937 -533"/>
    </vehicle>
    <vehicle id="13" depart="26.00">
        <route edges="-1089"/>
    </vehicle>
    <vehicle id="14" depart="28.00">
        <route edges="533 937 1089 1568"/>
    </vehicle>
    <vehicle id="15" depart="30.00">
        <route edges="533 937"/>
    </vehicle>
    <vehicle id="18" depart="36.00">
        <route edges="533 937 1089 1568"/>
    </vehicle>
    <vehicle id="19" depart="38.00">
        <route edges="937 1089 1568"/>
    </vehicle>
    <vehicle id="21" depart="42.00">
        <route edges="-1568 -1089 -937"/>
    </vehicle>
    <vehicle id="22" depart="44.00">
        <route edges="-1089 -937 -533"/>
    </vehicle>
    <vehicle id="23" depart="46.00">
        <route edges="-1089 -937 -533"/>
    </vehicle>
    <vehicle id="25" depart="50.00">
        <route edges="-937 -533"/>
    </vehicle>
    <vehicle id="26" depart="52.00">
        <route edges="-1568 -1089 -937 939"/>
    </vehicle>
    <vehicle id="27" depart="54.00">
        <route edges="1089 1568"/>
    </vehicle>
    <vehicle id="29" depart="58.00">
        <route edges="-1568 -1089 -937"/>
    </vehicle>
    <vehicle id="30" depart="60.00">
        <route edges="937 1089 1568"/>
    </vehicle>
    <vehicle id="31" depart="62.00">
        <route edges="-939 937 1089 1568"/>
    </vehicle>
    <vehicle id="32" depart="64.00">
        <route edges="533 937"/>
    </vehicle>
    <vehicle id="33" depart="66.00">
        <route edges="-1568 -1089"/>
    </vehicle>
    <vehicle id="34" depart="68.00">
        <route edges="-937 -533"/>
    </vehicle>
    <vehicle id="35" depart="70.00">
        <route edges="-1568 -1089 -937 939"/>
    </vehicle>
    <vehicle id="38" depart="76.00">
        <route edges="937 1089"/>
    </vehicle>
    <vehicle id="39" depart="78.00">
        <route edges="-1568 -1089 -937 -533"/>
    </vehicle>
    <vehicle id="40" depart="80.00">
        <route edges="-939 -533"/>
    </vehicle>
    <vehicle id="42" depart="84.00">
        <route edges="-937 -533"/>
    </vehicle>
    <vehicle id="43" depart="86.00">
        <route edges="937 1089"/>
    </vehicle>
    <vehicle id="44" depart="88.00">
        <route edges="-1089"/>
    </vehicle>
    <vehicle id="47" depart="94.00">
        <route edges="-1089 -937"/>
    </vehicle>
    <vehicle id="48" depart="96.00">
        <route edges="937 1089"/>
    </vehicle>
    <vehicle id="51" depart="102.00">
        <route edges="1089"/>
    </vehicle>
    <vehicle id="56" depart="112.00">
        <route edges="-939 -533"/>
    </vehicle>
    <vehicle id="60" depart="120.00">
        <route edges="533 937 1089"/>
    </vehicle>
    <vehicle id="61" depart="122.00">
        <route edges="533 937 1089"/>
    </vehicle>
    <vehicle id="62" depart="124.00">
        <route edges="-1089 -937"/>
    </vehicle>
    <vehicle id="63" depart="126.00">
        <route edges="-1089 -937 939"/>
    </vehicle>
    <vehicle id="64" depart="128.00">
        <route edges="937"/>
    </vehicle>
    <vehicle id="70" depart="140.00">
        <route edges="-939 937 1089"/>
    </vehicle>
    <vehicle id="71" depart="142.00">
        <route edges="-1568 -1089 -937 939"/>
    </vehicle>
    <vehicle id="72" depart="144.00">
        <route edges="-937 -533"/>
    </vehicle>
    <vehicle id="73" depart="146.00">
        <route edges="-939 937"/>
    </vehicle>
    <vehicle id="74" depart="148.00">
        <route edges="-1568 -1089 -937"/>
    </vehicle>
    <vehicle id="75" depart="150.00">
        <route edges="937 1089 1568"/>
    </vehicle>
    <vehicle id="76" depart="152.00">
        <route edges="-939 937 1089"/>
    </vehicle>
    <vehicle id="77" depart="154.00">
        <route edges="-1089 -937 -533"/>
    </vehicle>
    <vehicle id="79" depart="158.00">
        <route edges="-1568 -1089 -937 -533"/>
    </vehicle>
    <vehicle id="81" depart="162.00">
        <route edges="-1568 -1089 -937 939"/>
    </vehicle>
    <vehicle id="84" depart="168.00">
        <route edges="-1568 -1089"/>
    </vehicle>
    <vehicle id="85" depart="170.00">
        <route edges="937 1089"/>
    </vehicle>
    <vehicle id="86" depart="172.00">
        <route edges="-939 937"/>
    </vehicle>
    <vehicle id="90" depart="180.00">
        <route edges="533 937 1089 1568"/>
    </vehicle>
    <vehicle id="92" depart="184.00">
        <route edges="-937"/>
    </vehicle>
    <vehicle id="95" depart="190.00">
        <route edges="-937 -533"/>
    </vehicle>
    <vehicle id="96" depart="192.00">
        <route edges="-1568 -1089 -937 939"/>
    </vehicle>
    <vehicle id="99" depart="198.00">
        <route edges="937"/>
    </vehicle>
    <vehicle id="102" depart="204.00">
        <route edges="-939 -533"/>
    </vehicle>
    <vehicle id="104" depart="208.00">
        <route edges="-937 939"/>
    </vehicle>
    <vehicle id="108" depart="216.00">
        <route edges="-939 937"/>
    </vehicle>
    <vehicle id="109" depart="218.00">
        <route edges="-1568 -1089 -937"/>
    </vehicle>
    <vehicle id="110" depart="220.00">
        <route edges="937 1089 1568"/>
    </vehicle>
    <vehicle id="111" depart="222.00">
        <route edges="-939 937"/>
    </vehicle>
    <vehicle id="113" depart="226.00">
        <route edges="-939 937"/>
    </vehicle>
    <vehicle id="114" depart="228.00">
        <route edges="-1568 -1089 -937 939"/>
    </vehicle>
    <vehicle id="115" depart="230.00">
        <route edges="-1089 -937 -533"/>
    </vehicle>
    <vehicle id="116" depart="232.00">
        <route edges="1089 1568"/>
    </vehicle>
    <vehicle id="117" depart="234.00">
        <route edges="-1568 -1089"/>
    </vehicle>
    <vehicle id="119" depart="238.00">
        <route edges="1089 1568"/>
    </vehicle>
    <vehicle id="123" depart="246.00">
        <route edges="-1568 -1089 -937"/>
    </vehicle>
    <vehicle id="128" depart="256.00">
        <route edges="-1089 -937 -533"/>
    </vehicle>
    <vehicle id="129" depart="258.00">
        <route edges="-1568 -1089 -937 939"/>
    </vehicle>
    <vehicle id="131" depart="262.00">
        <route edges="-937 -533"/>
    </vehicle>
    <vehicle id="132" depart="264.00">
        <route edges="533 937 1089 1568"/>
    </vehicle>
    <vehicle id="137" depart="274.00">
        <route edges="-1089"/>
    </vehicle>
    <vehicle id="144" depart="288.00">
        <route edges="-937 -533"/>
    </vehicle>
    <vehicle id="147" depart="294.00">
        <route edges="533 937 1089"/>
    </vehicle>
    <vehicle id="149" depart="298.00">
        <route edges="-1089 -937 939"/>
    </vehicle>
    <vehicle id="150" depart="300.00">
        <route edges="937 1089"/>
    </vehicle>
    <vehicle id="151" depart="302.00">
        <route edges="533 937 1089 1568"/>
    </vehicle>
    <vehicle id="152" depart="304.00">
        <route edges="-1568 -1089"/>
    </vehicle>
    <vehicle id="153" depart="306.00">
        <route edges="-937 939"/>
    </vehicle>
    <vehicle id="154" depart="308.00">
        <route edges="533 939"/>
    </vehicle>
    <vehicle id="156" depart="312.00">
        <route edges="-1568 -1089"/>
    </vehicle>
    <vehicle id="157" depart="314.00">
        <route edges="533 939"/>
    </vehicle>
    <vehicle id="159" depart="318.00">
        <route edges="-1568 -1089 -937 939"/>
    </vehicle>
    <vehicle id="161" depart="322.00">
        <route edges="533 939"/>
    </vehicle>
    <vehicle id="163" depart="326.00">
        <route edges="-937 939"/>
    </vehicle>
    <vehicle id="164" depart="328.00">
        <route edges="533 939"/>
    </vehicle>
    <vehicle id="171" depart="342.00">
        <route edges="-1089 -937 -533"/>
    </vehicle>
    <vehicle id="172" depart="344.00">
        <route edges="-937 939"/>
    </vehicle>
    <vehicle id="175" depart="350.00">
        <route edges="937 1089"/>
    </vehicle>
    <vehicle id="181" depart="362.00">
        <route edges="1089"/>
    </vehicle>
    <vehicle id="184" depart="368.00">
        <route edges="-1089 -937 939"/>
    </vehicle>
    <vehicle id="185" depart="370.00">
        <route edges="-939 937"/>
    </vehicle>
    <vehicle id="186" depart="372.00">
        <route edges="533 937 1089 1568"/>
    </vehicle>
    <vehicle id="191" depart="382.00">
        <route edges="-937"/>
    </vehicle>
    <vehicle id="192" depart="384.00">
        <route edges="-937"/>
    </vehicle>
    <vehicle id="193" depart="386.00">
        <route edges="-1089 -937"/>
    </vehicle>
    <vehicle id="194" depart="388.00">
        <route edges="937 1089 1568"/>
    </vehicle>
    <vehicle id="195" depart="390.00">
        <route edges="937 1089 1568"/>
    </vehicle>
    <vehicle id="197" depart="394.00">
        <route edges="-1089 -937"/>
    </vehicle>
    <vehicle id="198" depart="396.00">
        <route edges="-939 937 1089 1568"/>
    </vehicle>
    <vehicle id="199" depart="398.00">
        <route edges="1089"/>
    </vehicle>
    <vehicle id="200" depart="400.00">
        <route edges="-939 -533"/>
    </vehicle>
    <vehicle id="205" depart="410.00">
        <route edges="533 937"/>
    </vehicle>
    <vehicle id="207" depart="414.00">
        <route edges="-1568 -1089"/>
    </vehicle>
    <vehicle id="212" depart="424.00">
        <route edges="-939 -533"/>
    </vehicle>
    <vehicle id="214" depart="428.00">
        <route edges="533 937"/>
    </vehicle>
    <vehicle id="215" depart="430.00">
        <route edges="-1089 -937"/>
    </vehicle>
    <vehicle id="216" depart="432.00">
        <route edges="-1568 -1089 -937 939"/>
    </vehicle>
    <vehicle id="219" depart="438.00">
        <route edges="-939 937"/>
    </vehicle>
    <vehicle id="222" depart="444.00">
        <route edges="937 1089 1568"/>
    </vehicle>
    <vehicle id="223" depart="446.00">
        <route edges="533 937 1089"/>
    </vehicle>
    <vehicle id="224" depart="448.00">
        <route edges="533 937 1089"/>
    </vehicle>
    <vehicle id="225" depart="450.00">
        <route edges="937"/>
    </vehicle>
    <vehicle id="226" depart="452.00">
        <route edges="-939 -533"/>
    </vehicle>
    <vehicle id="228" depart="456.00">
        <route edges="533 937 1089"/>
    </vehicle>
    <vehicle id="230" depart="460.00">
        <route edges="-1089 -937"/>
    </vehicle>
    <vehicle id="231" depart="462.00">
        <route edges="-1568 -1089 -937"/>
    </vehicle>
    <vehicle id="236" depart="472.00">
        <route edges="-937 -533"/>
    </vehicle>
    <vehicle id="237" depart="474.00">
        <route edges="-937 939"/>
    </vehicle>
    <vehicle id="238" depart="476.00">
        <route edges="1089 1568"/>
    </vehicle>
    <vehicle id="239" depart="478.00">
        <route edges="533 937"/>
    </vehicle>
    <vehicle id="242" depart="484.00">
        <route edges="533 939"/>
    </vehicle>
    <vehicle id="244" depart="488.00">
        <route edges="-939 937 1089 1568"/>
    </vehicle>
    <vehicle id="245" depart="490.00">
        <route edges="-1568 -1089 -937 -533"/>
    </vehicle>
    <vehicle id="248" depart="496.00">
        <route edges="-937 -533"/>
    </vehicle>
    <vehicle id="254" depart="508.00">
        <route edges="-1089 -937"/>
    </vehicle>
    <vehicle id="255" depart="510.00">
        <route edges="-1568 -1089 -937"/>
    </vehicle>
    <vehicle id="257" depart="514.00">
        <route edges="533 937"/>
    </vehicle>
    <vehicle id="258" depart="516.00">
        <route edges="-1568 -1089"/>
    </vehicle>
    <vehicle id="264" depart="528.00">
        <route edges="-1089 -937 -533"/>
    </vehicle>
    <vehicle id="266" depart="532.00">
        <route edges="-939 -533"/>
    </vehicle>
    <vehicle id="270" depart="540.00">
        <route edges="533 939"/>
    </vehicle>
    <vehicle id="271" depart="542.00">
        <route edges="-1089"/>
    </vehicle>
    <vehicle id="275" depart="550.00">
        <route edges="1089 1568"/>
    </vehicle>
    <vehicle id="277" depart="554.00">
        <route edges="533 937 1089 1568"/>
    </vehicle>
    <vehicle id="278" depart="556.00">
        <route edges="-1089 -937 939"/>
    </vehicle>
    <vehicle id="280" depart="560.00">
        <route edges="-937"/>
    </vehicle>
    <vehicle id="282" depart="564.00">
        <route edges="533 937"/>
    </vehicle>
    <vehicle id="283" depart="566.00">
        <route edges="-1089 -937 939"/>
    </vehicle>
    <vehicle id="285" depart="570.00">
        <route edges="1089"/>
    </vehicle>
    <vehicle id="286" depart="572.00">
        <route edges="533 939"/>
    </vehicle>
    <vehicle id="288" depart="576.00">
        <route edges="-939 937 1089"/>
    </vehicle>
    <vehicle id="289" depart="578.00">
        <route edges="-939 937"/>
    </vehicle>
    <vehicle id="293" depart="586.00">
        <route edges="-939 937 1089 1568"/>
    </vehicle>
    <vehicle id="297" depart="594.00">
        <route edges="-937 939"/>
    </vehicle>
    <vehicle id="299" depart="598.00">
        <route edges="-1089 -937 939"/>
    </vehicle>
    <vehicle id="301" depart="602.00">
        <route edges="-939 937"/>
    </vehicle>
    <vehicle id="302" depart="604.00">
        <route edges="1089 1568"/>
    </vehicle>
    <vehicle id="303" depart="606.00">
        <route edges="-939 937"/>
    </vehicle>
    <vehicle id="304" depart="608.00">
        <route edges="-1089 -937 -533"/>
    </vehicle>
    <vehicle id="306" depart="612.00">
        <route edges="1089"/>
    </vehicle>
    <vehicle id="310" depart="620.00">
        <route edges="-1568 -1089"/>
    </vehicle>
    <vehicle id="311" depart="622.00">
        <route edges="-1568 -1089"/>
    </vehicle>
    <vehicle id="312" depart="624.00">
        <route edges="-939 937"/>
    </vehicle>
    <vehicle id="313" depart="626.00">
        <route edges="-1568 -1089 -937 -533"/>
    </vehicle>
    <vehicle id="314" depart="628.00">
        <route edges="-939 937"/>
    </vehicle>
    <vehicle id="315" depart="630.00">
        <route edges="937 1089"/>
    </vehicle>
    <vehicle id="316" depart="632.00">
        <route edges="-1568 -1089"/>
    </vehicle>
    <vehicle id="317" depart="634.00">
        <route edges="-1568 -1089 -937 -533"/>
    </vehicle>
    <vehicle id="318" depart="636.00">
        <route edges="-1568 -1089"/>
    </vehicle>
    <vehicle id="319" depart="638.00">
        <route edges="-939 -533"/>
    </vehicle>
    <vehicle id="320" depart="640.00">
        <route edges="937 1089"/>
    </vehicle>
    <vehicle id="322" depart="644.00">
        <route edges="937 1089"/>
    </vehicle>
    <vehicle id="323" depart="646.00">
        <route edges="937 1089 1568"/>
    </vehicle>
    <vehicle id="324" depart="648.00">
        <route edges="-939 937 1089"/>
    </vehicle>
    <vehicle id="325" depart="650.00">
        <route edges="-1568 -1089"/>
    </vehicle>
    <vehicle id="326" depart="652.00">
        <route edges="937 1089"/>
    </vehicle>
    <vehicle id="329" depart="658.00">
        <route edges="-1089 -937 -533"/>
    </vehicle>
    <vehicle id="332" depart="664.00">
        <route edges="533 937 1089 1568"/>
    </vehicle>
    <vehicle id="334" depart="668.00">
        <route edges="-939 937 1089"/>
    </vehicle>
    <vehicle id="337" depart="674.00">
        <route edges="1089 1568"/>
    </vehicle>
    <vehicle id="338" depart="676.00">
        <route edges="533 939"/>
    </vehicle>
    <vehicle id="339" depart="678.00">
        <route edges="-1568 -1089 -937 -533"/>
    </vehicle>
    <vehicle id="341" depart="682.00">
        <route edges="-1568 -1089"/>
    </vehicle>
    <vehicle id="345" depart="690.00">
        <route edges="1089"/>
    </vehicle>
    <vehicle id="347" depart="694.00">
        <route edges="533 937 1089 1568"/>
    </vehicle>
    <vehicle id="352" depart="704.00">
        <route edges="-1568 -1089 -937"/>
    </vehicle>
    <vehicle id="353" depart="706.00">
        <route edges="533 937 1089"/>
    </vehicle>
    <vehicle id="355" depart="710.00">
        <route edges="1089 1568"/>
    </vehicle>
    <vehicle id="356" depart="712.00">
        <route edges="937 1089"/>
    </vehicle>
    <vehicle id="359" depart="718.00">
        <route edges="-937 -533"/>
    </vehicle>
    <vehicle id="360" depart="720.00">
        <route edges="-1089 -937 939"/>
    </vehicle>
    <vehicle id="361" depart="722.00">
        <route edges="533 937 1089 1568"/>
    </vehicle>
    <vehicle id="365" depart="730.00">
        <route edges="-939 937 1089 1568"/>
    </vehicle>
    <vehicle id="367" depart="734.00">
        <route edges="1089 1568"/>
    </vehicle>
    <vehicle id="369" depart="738.00">
        <route edges="-937"/>
    </vehicle>
    <vehicle id="372" depart="744.00">
        <route edges="-937 939"/>
    </vehicle>
    <vehicle id="373" depart="746.00">
        <route edges="533 937 1089"/>
    </vehicle>
    <vehicle id="375" depart="750.00">
        <route edges="-937 939"/>
    </vehicle>
    <vehicle id="377" depart="754.00">
        <route edges="937 1089 1568"/>
    </vehicle>
    <vehicle id="379" depart="758.00">
        <route edges="-1568 -1089 -937"/>
    </vehicle>
    <vehicle id="380" depart="760.00">
        <route edges="533 937 1089 1568"/>
    </vehicle>
    <vehicle id="383" depart="766.00">
        <route edges="-939 937 1089 1568"/>
    </vehicle>
    <vehicle id="384" depart="768.00">
        <route edges="-1089 -937 939"/>
    </vehicle>
    <vehicle id="390" depart="780.00">
        <route edges="533 937 1089"/>
    </vehicle>
    <vehicle id="391" depart="782.00">
        <route edges="533 937 1089"/>
    </vehicle>
    <vehicle id="395" depart="790.00">
        <route edges="937 1089"/>
    </vehicle>
    <vehicle id="398" depart="796.00">
        <route edges="-937 939"/>
    </vehicle>
    <vehicle id="399" depart="798.00">
        <route edges="-939 937"/>
    </vehicle>
    <vehicle id="400" depart="800.00">
        <route edges="-1568 -1089 -937"/>
    </vehicle>
    <vehicle id="402" depart="804.00">
        <route edges="-939 -533"/>
    </vehicle>
    <vehicle id="404" depart="808.00">
        <route edges="-939 937 1089"/>
    </vehicle>
    <vehicle id="409" depart="818.00">
        <route edges="533 937 1089 1568"/>
    </vehicle>
    <vehicle id="412" depart="824.00">
        <route edges="937 1089"/>
    </vehicle>
    <vehicle id="415" depart="830.00">
        <route edges="937 1089"/>
    </vehicle>
    <vehicle id="416" depart="832.00">
        <route edges="-939 937 1089"/>
    </vehicle>
    <vehicle id="422" depart="844.00">
        <route edges="533 939"/>
    </vehicle>
    <vehicle id="423" depart="846.00">
        <route edges="-937"/>
    </vehicle>
    <vehicle id="424" depart="848.00">
        <route edges="533 937"/>
    </vehicle>
    <vehicle id="428" depart="856.00">
        <route edges="533 937 1089"/>
    </vehicle>
    <vehicle id="430" depart="860.00">
        <route edges="937 1089"/>
    </vehicle>
    <vehicle id="433" depart="866.00">
        <route edges="-937"/>
    </vehicle>
    <vehicle id="435" depart="870.00">
        <route edges="-939 937"/>
    </vehicle>
    <vehicle id="436" depart="872.00">
        <route edges="-1568 -1089"/>
    </vehicle>
    <vehicle id="437" depart="874.00">
        <route edges="937 1089 1568"/>
    </vehicle>
    <vehicle id="438" depart="876.00">
        <route edges="-1568 -1089 -937 939"/>
    </vehicle>
    <vehicle id="440" depart="880.00">
        <route edges="-1568 -1089 -937 -533"/>
    </vehicle>
    <vehicle id="442" depart="884.00">
        <route edges="937 1089 1568"/>
    </vehicle>
    <vehicle id="447" depart="894.00">
        <route edges="-1568 -1089 -937"/>
    </vehicle>
    <vehicle id="448" depart="896.00">
        <route edges="-939 -533"/>
    </vehicle>
    <vehicle id="449" depart="898.00">
        <route edges="1089 1568"/>
    </vehicle>
    <vehicle id="451" depart="902.00">
        <route edges="937 1089 1568"/>
    </vehicle>
    <vehicle id="458" depart="916.00">
        <route edges="1089 1568"/>
    </vehicle>
    <vehicle id="463" depart="926.00">
        <route edges="-939 937 1089 1568"/>
    </vehicle>
    <vehicle id="466" depart="932.00">
        <route edges="-1568 -1089"/>
    </vehicle>
    <vehicle id="470" depart="940.00">
        <route edges="533 937 1089"/>
    </vehicle>
    <vehicle id="471" depart="942.00">
        <route edges="533 937"/>
    </vehicle>
    <vehicle id="475" depart="950.00">
        <route edges="533 939"/>
    </vehicle>
    <vehicle id="476" depart="952.00">
        <route edges="937"/>
    </vehicle>
    <vehicle id="479" depart="958.00">
        <route edges="-939 937 1089 1568"/>
    </vehicle>
    <vehicle id="480" depart="960.00">
        <route edges="1089 1568"/>
    </vehicle>
    <vehicle id="481" depart="962.00">
        <route edges="533 939"/>
    </vehicle>
    <vehicle id="482" depart="964.00">
        <route edges="-1089 -937 -533"/>
    </vehicle>
    <vehicle id="483" depart="966.00">
        <route edges="-1089 -937 939"/>
    </vehicle>
    <vehicle id="485" depart="970.00">
        <route edges="-1568 -1089"/>
    </vehicle>
    <vehicle id="486" depart="972.00">
        <route edges="533 939"/>
    </vehicle>
    <vehicle id="487" depart="974.00">
        <route edges="-937"/>
    </vehicle>
    <vehicle id="488" depart="976.00">
        <route edges="-1089 -937 939"/>
    </vehicle>
    <vehicle id="490" depart="980.00">
        <route edges="-1089 -937 939"/>
    </vehicle>
    <vehicle id="499" depart="998.00">
        <route edges="937"/>
    </vehicle>
    <vehicle id="502" depart="1004.00">
        <route edges="-937"/>
    </vehicle>
    <vehicle id="503" depart="1006.00">
        <route edges="-1568 -1089"/>
    </vehicle>
    <vehicle id="504" depart="1008.00">
        <route edges="533 937 1089"/>
    </vehicle>
    <vehicle id="505" depart="1010.00">
        <route edges="1089 1568"/>
    </vehicle>
    <vehicle id="510" depart="1020.00">
        <route edges="-1568 -1089 -937 -533"/>
    </vehicle>
    <vehicle id="512" depart="1024.00">
        <route edges="-1568 -1089 -937 939"/>
    </vehicle>
    <vehicle id="513" depart="1026.00">
        <route edges="-1089 -937 939"/>
    </vehicle>
    <vehicle id="514" depart="1028.00">
        <route edges="-1568 -1089"/>
    </vehicle>
    <vehicle id="515" depart="1030.00">
        <route edges="-1568 -1089 -937 -533"/>
    </vehicle>
    <vehicle id="518" depart="1036.00">
        <route edges="-1568 -1089 -937"/>
    </vehicle>
    <vehicle id="519" depart="1038.00">
        <route edges="-1568 -1089"/>
    </vehicle>
    <vehicle id="520" depart="1040.00">
        <route edges="533 937 1089"/>
    </vehicle>
    <vehicle id="521" depart="1042.00">
        <route edges="533 937 1089"/>
    </vehicle>
    <vehicle id="522" depart="1044.00">
        <route edges="533 937 1089"/>
    </vehicle>
    <vehicle id="525" depart="1050.00">
        <route edges="533 939"/>
    </vehicle>
    <vehicle id="526" depart="1052.00">
        <route edges="-939 937 1089"/>
    </vehicle>
    <vehicle id="529" depart="1058.00">
        <route edges="1089"/>
    </vehicle>
    <vehicle id="532" depart="1064.00">
        <route edges="-1089 -937 -533"/>
    </vehicle>
    <vehicle id="533" depart="1066.00">
        <route edges="1089"/>
    </vehicle>
    <vehicle id="534" depart="1068.00">
        <route edges="-937 939"/>
    </vehicle>
    <vehicle id="535" depart="1070.00">
        <route edges="-939 937 1089"/>
    </vehicle>
    <vehicle id="540" depart="1080.00">
        <route edges="-939 -533"/>
    </vehicle>
    <vehicle id="544" depart="1088.00">
        <route edges="-937 -533"/>
    </vehicle>
    <vehicle id="548" depart="1096.00">
        <route edges="533 937 1089"/>
    </vehicle>
    <vehicle id="549" depart="1098.00">
        <route edges="1089"/>
    </vehicle>
    <vehicle id="552" depart="1104.00">
        <route edges="533 939"/>
    </vehicle>
    <vehicle id="553" depart="1106.00">
        <route edges="533 939"/>
    </vehicle>
    <vehicle id="560" depart="1120.00">
        <route edges="533 939"/>
    </vehicle>
    <vehicle id="561" depart="1122.00">
        <route edges="533 937 1089 1568"/>
    </vehicle>
    <vehicle id="563" depart="1126.00">
        <route edges="937"/>
    </vehicle>
    <vehicle id="564" depart="1128.00">
        <route edges="-1568 -1089 -937 -533"/>
    </vehicle>
    <vehicle id="567" depart="1134.00">
        <route edges="937 1089"/>
    </vehicle>
    <vehicle id="571" depart="1142.00">
        <route edges="-937"/>
    </vehicle>
    <vehicle id="573" depart="1146.00">
        <route edges="533 937 1089"/>
    </vehicle>
    <vehicle id="574" depart="1148.00">
        <route edges="-1089"/>
    </vehicle>
    <vehicle id="577" depart="1154.00">
        <route edges="1089"/>
    </vehicle>
    <vehicle id="578" depart="1156.00">
        <route edges="-939 -533"/>
    </vehicle>
    <vehicle id="580" depart="1160.00">
        <route edges="-939 -533"/>
    </vehicle>
    <vehicle id="581" depart="1162.00">
        <route edges="1089"/>
    </vehicle>
    <vehicle id="584" depart="1168.00">
        <route edges="-1089 -937"/>
    </vehicle>
    <vehicle id="585" depart="1170.00">
        <route edges="-1568 -1089"/>
    </vehicle>
    <vehicle id="586" depart="1172.00">
        <route edges="-1568 -1089 -937"/>
    </vehicle>
    <vehicle id="588" depart="1176.00">
        <route edges="-1568 -1089 -937"/>
    </vehicle>
    <vehicle id="589" depart="1178.00">
        <route edges="1089"/>
    </vehicle>
    <vehicle id="590" depart="1180.00">
        <route edges="533 937"/>
    </vehicle>
    <vehicle id="591" depart="1182.00">
        <route edges="-1089 -937 939"/>
    </vehicle>
    <vehicle id="592" depart="1184.00">
        <route edges="-1089"/>
    </vehicle>
    <vehicle id="594" depart="1188.00">
        <route edges="1089 1568"/>
    </vehicle>
    <vehicle id="596" depart="1192.00">
        <route edges="-1089"/>
    </vehicle>
    <vehicle id="601" depart="1202.00">
        <route edges="1089"/>
    </vehicle>
    <vehicle id="602" depart="1204.00">
        <route edges="-937"/>
    </vehicle>
    <vehicle id="603" depart="1206.00">
        <route edges="-937"/>
    </vehicle>
    <vehicle id="607" depart="1214.00">
        <route edges="533 937"/>
    </vehicle>
    <vehicle id="609" depart="1218.00">
        <route edges="-1568 -1089 -937 -533"/>
    </vehicle>
    <vehicle id="612" depart="1224.00">
        <route edges="533 937 1089"/>
    </vehicle>
    <vehicle id="613" depart="1226.00">
        <route edges="533 937"/>
    </vehicle>
    <vehicle id="615" depart="1230.00">
        <route edges="-939 937 1089 1568"/>
    </vehicle>
    <vehicle id="619" depart="1238.00">
        <route edges="-937 -533"/>
    </vehicle>
    <vehicle id="623" depart="1246.00">
        <route edges="-1089 -937 939"/>
    </vehicle>
    <vehicle id="624" depart="1248.00">
        <route edges="533 937 1089 1568"/>
    </vehicle>
    <vehicle id="625" depart="1250.00">
        <route edges="-939 937 1089"/>
    </vehicle>
    <vehicle id="626" depart="1252.00">
        <route edges="-939 937"/>
    </vehicle>
    <vehicle id="627" depart="1254.00">
        <route edges="937 1089"/>
    </vehicle>
    <vehicle id="628" depart="1256.00">
        <route edges="533 937 1089 1568"/>
    </vehicle>
    <vehicle id="630" depart="1260.00">
        <route edges="-1568 -1089"/>
    </vehicle>
    <vehicle id="631" depart="1262.00">
        <route edges="-1089 -937 939"/>
    </vehicle>
    <vehicle id="633" depart="1266.00">
        <route edges="-939 -533"/>
    </vehicle>
    <vehicle id="635" depart="1270.00">
        <route edges="-939 937 1089"/>
    </vehicle>
    <vehicle id="636" depart="1272.00">
        <route edges="-1568 -1089 -937"/>
    </vehicle>
    <vehicle id="637" depart="1274.00">
        <route edges="-1568 -1089 -937"/>
    </vehicle>
    <vehicle id="639" depart="1278.00">
        <route edges="533 937 1089 1568"/>
    </vehicle>
    <vehicle id="640" depart="1280.00">
        <route edges="-1089"/>
    </vehicle>
    <vehicle id="642" depart="1284.00">
        <route edges="533 937 1089 1568"/>
    </vehicle>